<additional>
	<inductionLoop id='-143547931#0_0loop' lane='143240408_0' pos='-10' freq='100' file='/home/deepak/Desktop/sumo_map_map (copy)/result_of_iloop.xml'/>
	
	
</additional>