<additional>
<inductionLoop id='107215088#1_0loop' lane='107215088#1_0' pos='10' freq='100' file='/home/deepak/Desktop/sumo_map_map (copy)/result_of_iloop.xml'/>
<inductionLoop id='107215088#1_1loop' lane='107215088#1_1' pos='10' freq='100' file='/home/deepak/Desktop/sumo_map_map (copy)/result_of_iloop.xml'/>
<inductionLoop id='332907586_0loop' lane='332907586_0' pos='-10' freq='100' file='/home/deepak/Desktop/sumo_map_map (copy)/result_of_iloop.xml'/>
<inductionLoop id='107215088#0_0loop' lane='107215088#0_0' pos='-10' freq='100' file='/home/deepak/Desktop/sumo_map_map (copy)/result_of_iloop.xml'/>
<inductionLoop id='107215088#0_1loop' lane='107215088#0_1' pos='-10' freq='100' file='/home/deepak/Desktop/sumo_map_map (copy)/result_of_iloop.xml'/>
<inductionLoop id='107215089#0_0loop' lane='107215088#0_0' pos='10' freq='100' file='/home/deepak/Desktop/sumo_map_map (copy)/result_of_iloop.xml'/>
<inductionLoop id='107215089#0_1loop' lane='107215088#0_1' pos='10' freq='100' file='/home/deepak/Desktop/sumo_map_map (copy)/result_of_iloop.xml'/>
<inductionLoop id='323813903#1_0loop' lane='323813903#1_0' pos='-10' freq='100' file='/home/deepak/Desktop/sumo_map_map (copy)/result_of_iloop.xml'/>
<inductionLoop id='323813903#1_1loop' lane='323813903#1_1' pos='-10' freq='100' file='/home/deepak/Desktop/sumo_map_map (copy)/result_of_iloop.xml'/>
<inductionLoop id='359476590#1_0loop' lane='359476590#1_0' pos='-10' freq='100' file='/home/deepak/Desktop/sumo_map_map (copy)/result_of_iloop.xml'/>
<inductionLoop id='359476590#1_1loop' lane='359476590#1_1' pos='-10' freq='100' file='/home/deepak/Desktop/sumo_map_map (copy)/result_of_iloop.xml'/>
<inductionLoop id='359476591#1_0loop' lane='359476590#1_0' pos='10' freq='100' file='/home/deepak/Desktop/sumo_map_map (copy)/result_of_iloop.xml'/>
<inductionLoop id='359476591#1_1loop' lane='359476590#1_1' pos='10' freq='100' file='/home/deepak/Desktop/sumo_map_map (copy)/result_of_iloop.xml'/>
<inductionLoop id='542070647#0_0loop' lane='542070647#0_0' pos='-10' freq='100' file='/home/deepak/Desktop/sumo_map_map (copy)/result_of_iloop.xml'/>
<inductionLoop id='542070647#0_1loop' lane='542070647#0_1' pos='-10' freq='100' file='/home/deepak/Desktop/sumo_map_map (copy)/result_of_iloop.xml'/>
<inductionLoop id='362900185#1_0loop' lane='362900185#1_0' pos='-10' freq='100' file='/home/deepak/Desktop/sumo_map_map (copy)/result_of_iloop.xml'/>
<inductionLoop id='362900185#1_1loop' lane='362900185#1_1' pos='-10' freq='100' file='/home/deepak/Desktop/sumo_map_map (copy)/result_of_iloop.xml'/>
<inductionLoop id='107215079#0_0loop' lane='107215079#0_0' pos='10' freq='100' file='/home/deepak/Desktop/sumo_map_map (copy)/result_of_iloop.xml'/>
<inductionLoop id='107215079#0_1loop' lane='107215079#0_1' pos='10' freq='100' file='/home/deepak/Desktop/sumo_map_map (copy)/result_of_iloop.xml'/>
<inductionLoop id='45444005_0loop' lane='45444005_0' pos='-10' freq='100' file='/home/deepak/Desktop/sumo_map_map (copy)/result_of_iloop.xml'/>
<inductionLoop id='107215080#0_0loop' lane='107215079#0_0' pos='-10' freq='100' file='/home/deepak/Desktop/sumo_map_map (copy)/result_of_iloop.xml'/>
<inductionLoop id='107215080#0_1loop' lane='107215079#0_1' pos='-10' freq='100' file='/home/deepak/Desktop/sumo_map_map (copy)/result_of_iloop.xml'/>
<inductionLoop id='107215080#1_0loop' lane='107215079#1_0' pos='10' freq='100' file='/home/deepak/Desktop/sumo_map_map (copy)/result_of_iloop.xml'/>
<inductionLoop id='107215080#1_1loop' lane='107215079#1_1' pos='10' freq='100' file='/home/deepak/Desktop/sumo_map_map (copy)/result_of_iloop.xml'/>
<inductionLoop id='26283729#0_0loop' lane='26283729#0_0' pos='10' freq='100' file='/home/deepak/Desktop/sumo_map_map (copy)/result_of_iloop.xml'/>
<inductionLoop id='107215079#1_0loop' lane='107215079#1_0' pos='-10' freq='100' file='/home/deepak/Desktop/sumo_map_map (copy)/result_of_iloop.xml'/>
<inductionLoop id='107215079#1_1loop' lane='107215079#1_1' pos='-10' freq='100' file='/home/deepak/Desktop/sumo_map_map (copy)/result_of_iloop.xml'/>
<inductionLoop id='107215079#2_0loop' lane='107215079#2_0' pos='10' freq='100' file='/home/deepak/Desktop/sumo_map_map (copy)/result_of_iloop.xml'/>
<inductionLoop id='107215079#2_1loop' lane='107215079#2_1' pos='10' freq='100' file='/home/deepak/Desktop/sumo_map_map (copy)/result_of_iloop.xml'/>
<inductionLoop id='107215080#2_0loop' lane='107215079#2_0' pos='-10' freq='100' file='/home/deepak/Desktop/sumo_map_map (copy)/result_of_iloop.xml'/>
<inductionLoop id='107215080#2_1loop' lane='107215079#2_1' pos='-10' freq='100' file='/home/deepak/Desktop/sumo_map_map (copy)/result_of_iloop.xml'/>
<inductionLoop id='107215079#3_0loop' lane='107215079#3_0' pos='10' freq='100' file='/home/deepak/Desktop/sumo_map_map (copy)/result_of_iloop.xml'/>
<inductionLoop id='107215079#3_1loop' lane='107215079#3_1' pos='10' freq='100' file='/home/deepak/Desktop/sumo_map_map (copy)/result_of_iloop.xml'/>
<inductionLoop id='52246044#0_0loop' lane='52246044#0_0' pos='-10' freq='100' file='/home/deepak/Desktop/sumo_map_map (copy)/result_of_iloop.xml'/>
<inductionLoop id='52246044#1_0loop' lane='52246044#1_0' pos='10' freq='100' file='/home/deepak/Desktop/sumo_map_map (copy)/result_of_iloop.xml'/>
<inductionLoop id='-36913437#0_0loop' lane='-36913437#0_0' pos='-10' freq='100' file='/home/deepak/Desktop/sumo_map_map (copy)/result_of_iloop.xml'/>
<inductionLoop id='52246044#3_0loop' lane='52246044#3_0' pos='-10' freq='100' file='/home/deepak/Desktop/sumo_map_map (copy)/result_of_iloop.xml'/>
<inductionLoop id='45444005_1loop' lane='45444005_0' pos='-10' freq='100' file='/home/deepak/Desktop/sumo_map_map (copy)/result_of_iloop.xml'/>
<inductionLoop id='107215077#0_0loop' lane='107215077#0_0' pos='10' freq='100' file='/home/deepak/Desktop/sumo_map_map (copy)/result_of_iloop.xml'/>
<inductionLoop id='107215084_0loop' lane='107215084_0' pos='-10' freq='100' file='/home/deepak/Desktop/sumo_map_map (copy)/result_of_iloop.xml'/>
<inductionLoop id='107215077#2_0loop' lane='107215077#2_0' pos='-10' freq='100' file='/home/deepak/Desktop/sumo_map_map (copy)/result_of_iloop.xml'/>
<inductionLoop id='26283729#1_0loop' lane='26283729#1_0' pos='-10' freq='100' file='/home/deepak/Desktop/sumo_map_map (copy)/result_of_iloop.xml'/>
<inductionLoop id='26283729#2_0loop' lane='26283729#2_0' pos='10' freq='100' file='/home/deepak/Desktop/sumo_map_map (copy)/result_of_iloop.xml'/>
<inductionLoop id='107215077#3_0loop' lane='107215077#3_0' pos='10' freq='100' file='/home/deepak/Desktop/sumo_map_map (copy)/result_of_iloop.xml'/>
<inductionLoop id='107215078#3_0loop' lane='107215077#3_0' pos='-10' freq='100' file='/home/deepak/Desktop/sumo_map_map (copy)/result_of_iloop.xml'/>
<inductionLoop id='23515741#1_0loop' lane='23515741#1_0' pos='10' freq='100' file='/home/deepak/Desktop/sumo_map_map (copy)/result_of_iloop.xml'/>
<inductionLoop id='107215077#4_0loop' lane='107215077#4_0' pos='10' freq='100' file='/home/deepak/Desktop/sumo_map_map (copy)/result_of_iloop.xml'/>
<inductionLoop id='23515741#0_0loop' lane='23515741#0_0' pos='-10' freq='100' file='/home/deepak/Desktop/sumo_map_map (copy)/result_of_iloop.xml'/>
<inductionLoop id='107215078#4_0loop' lane='107215077#4_0' pos='-10' freq='100' file='/home/deepak/Desktop/sumo_map_map (copy)/result_of_iloop.xml'/>
<inductionLoop id='370403491_0loop' lane='370403491_0' pos='10' freq='100' file='/home/deepak/Desktop/sumo_map_map (copy)/result_of_iloop.xml'/>
<inductionLoop id='107215077#6_0loop' lane='107215077#6_0' pos='10' freq='100' file='/home/deepak/Desktop/sumo_map_map (copy)/result_of_iloop.xml'/>
<inductionLoop id='45444035_0loop' lane='45444035_0' pos='10' freq='100' file='/home/deepak/Desktop/sumo_map_map (copy)/result_of_iloop.xml'/>
<inductionLoop id='107215078#6_0loop' lane='107215077#6_0' pos='-10' freq='100' file='/home/deepak/Desktop/sumo_map_map (copy)/result_of_iloop.xml'/>
<inductionLoop id='120511754#1_0loop' lane='120511754#1_0' pos='-10' freq='100' file='/home/deepak/Desktop/sumo_map_map (copy)/result_of_iloop.xml'/>
<inductionLoop id='172920283_0loop' lane='172920283_0' pos='10' freq='100' file='/home/deepak/Desktop/sumo_map_map (copy)/result_of_iloop.xml'/>
<inductionLoop id='142664922#0_0loop' lane='142664922#0_0' pos='10' freq='100' file='/home/deepak/Desktop/sumo_map_map (copy)/result_of_iloop.xml'/>
<inductionLoop id='138980164#3_0loop' lane='138980164#3_0' pos='10' freq='100' file='/home/deepak/Desktop/sumo_map_map (copy)/result_of_iloop.xml'/>
<inductionLoop id='36913437#0_0loop' lane='36913437#0_0' pos='-10' freq='100' file='/home/deepak/Desktop/sumo_map_map (copy)/result_of_iloop.xml'/>
<inductionLoop id='138980164#2_0loop' lane='138980164#2_0' pos='-10' freq='100' file='/home/deepak/Desktop/sumo_map_map (copy)/result_of_iloop.xml'/>
<inductionLoop id='36913437#1_0loop' lane='36913437#1_0' pos='10' freq='100' file='/home/deepak/Desktop/sumo_map_map (copy)/result_of_iloop.xml'/>
<inductionLoop id='138980165#2_0loop' lane='138980164#2_0' pos='10' freq='100' file='/home/deepak/Desktop/sumo_map_map (copy)/result_of_iloop.xml'/>
<inductionLoop id='138980164#1_0loop' lane='138980164#1_0' pos='-10' freq='100' file='/home/deepak/Desktop/sumo_map_map (copy)/result_of_iloop.xml'/>
<inductionLoop id='36913440_0loop' lane='36913440_0' pos='10' freq='100' file='/home/deepak/Desktop/sumo_map_map (copy)/result_of_iloop.xml'/>
<inductionLoop id='138980165#1_0loop' lane='138980164#1_0' pos='10' freq='100' file='/home/deepak/Desktop/sumo_map_map (copy)/result_of_iloop.xml'/>
<inductionLoop id='107215085_0loop' lane='107215084_0' pos='10' freq='100' file='/home/deepak/Desktop/sumo_map_map (copy)/result_of_iloop.xml'/>
<inductionLoop id='138980164#0_0loop' lane='138980164#0_0' pos='-10' freq='100' file='/home/deepak/Desktop/sumo_map_map (copy)/result_of_iloop.xml'/>
<inductionLoop id='138980165#0_0loop' lane='138980164#0_0' pos='10' freq='100' file='/home/deepak/Desktop/sumo_map_map (copy)/result_of_iloop.xml'/>
<inductionLoop id='26283729#3_0loop' lane='26283729#3_0' pos='-10' freq='100' file='/home/deepak/Desktop/sumo_map_map (copy)/result_of_iloop.xml'/>
<inductionLoop id='26283723#4_0loop' lane='26283723#4_0' pos='-10' freq='100' file='/home/deepak/Desktop/sumo_map_map (copy)/result_of_iloop.xml'/>
<inductionLoop id='26283729#5_0loop' lane='26283729#5_0' pos='10' freq='100' file='/home/deepak/Desktop/sumo_map_map (copy)/result_of_iloop.xml'/>
<inductionLoop id='26283724#4_0loop' lane='26283723#4_0' pos='10' freq='100' file='/home/deepak/Desktop/sumo_map_map (copy)/result_of_iloop.xml'/>
<inductionLoop id='23515742#0_0loop' lane='23515741#0_0' pos='10' freq='100' file='/home/deepak/Desktop/sumo_map_map (copy)/result_of_iloop.xml'/>
<inductionLoop id='26283723#3_0loop' lane='26283723#3_0' pos='-10' freq='100' file='/home/deepak/Desktop/sumo_map_map (copy)/result_of_iloop.xml'/>
<inductionLoop id='138980161_0loop' lane='138980161_0' pos='-10' freq='100' file='/home/deepak/Desktop/sumo_map_map (copy)/result_of_iloop.xml'/>
<inductionLoop id='26283724#3_0loop' lane='26283723#3_0' pos='10' freq='100' file='/home/deepak/Desktop/sumo_map_map (copy)/result_of_iloop.xml'/>
<inductionLoop id='26283723#2_0loop' lane='26283723#2_0' pos='-10' freq='100' file='/home/deepak/Desktop/sumo_map_map (copy)/result_of_iloop.xml'/>
<inductionLoop id='143240397#0_0loop' lane='143240397#0_0' pos='10' freq='100' file='/home/deepak/Desktop/sumo_map_map (copy)/result_of_iloop.xml'/>
<inductionLoop id='45444035_1loop' lane='45444035_0' pos='-10' freq='100' file='/home/deepak/Desktop/sumo_map_map (copy)/result_of_iloop.xml'/>
<inductionLoop id='26283723#1_0loop' lane='26283723#1_0' pos='10' freq='100' file='/home/deepak/Desktop/sumo_map_map (copy)/result_of_iloop.xml'/>
<inductionLoop id='26283723#0_0loop' lane='26283723#0_0' pos='10' freq='100' file='/home/deepak/Desktop/sumo_map_map (copy)/result_of_iloop.xml'/>
<inductionLoop id='142664923#0_0loop' lane='142664922#0_0' pos='-10' freq='100' file='/home/deepak/Desktop/sumo_map_map (copy)/result_of_iloop.xml'/>
<inductionLoop id='142664922#1_0loop' lane='142664922#1_0' pos='10' freq='100' file='/home/deepak/Desktop/sumo_map_map (copy)/result_of_iloop.xml'/>
<inductionLoop id='143240398#0_0loop' lane='143240397#0_0' pos='-10' freq='100' file='/home/deepak/Desktop/sumo_map_map (copy)/result_of_iloop.xml'/>
<inductionLoop id='143240401#0_0loop' lane='143240401#0_0' pos='10' freq='100' file='/home/deepak/Desktop/sumo_map_map (copy)/result_of_iloop.xml'/>
<inductionLoop id='-143240397#1_0loop' lane='-143240397#1_0' pos='-10' freq='100' file='/home/deepak/Desktop/sumo_map_map (copy)/result_of_iloop.xml'/>
<inductionLoop id='367491275#0_0loop' lane='367491275#0_0' pos='-10' freq='100' file='/home/deepak/Desktop/sumo_map_map (copy)/result_of_iloop.xml'/>
<inductionLoop id='26283729#6_0loop' lane='26283729#6_0' pos='10' freq='100' file='/home/deepak/Desktop/sumo_map_map (copy)/result_of_iloop.xml'/>

</additional>
