<?xml version="1.0" encoding="UTF-8"?>

<!-- generated on Sat Nov 10 21:55:58 2018 by SUMO netconvert Version 0.32.0
<?xml version="1.0" encoding="UTF-8"?>

<configuration xmlns:xsi="http://www.w3.org/2001/XMLSchema-instance" xsi:noNamespaceSchemaLocation="http://sumo.dlr.de/xsd/netconvertConfiguration.xsd">

    <input>
        <osm-files value="map.osm"/>
    </input>

    <output>
        <output-file value="map.net.xml"/>
        <output.street-names value="true"/>
    </output>

    <projection>
        <proj.utm value="true"/>
    </projection>

    <processing>
        <lefthand value="true"/>
    </processing>

</configuration>
-->

<net version="0.27" lefthand="true" xmlns:xsi="http://www.w3.org/2001/XMLSchema-instance" xsi:noNamespaceSchemaLocation="http://sumo.dlr.de/xsd/net_file.xsd">

    <location netOffset="-781740.80,-1435979.39" convBoundary="0.00,-0.00,1429.11,983.95" origBoundary="77.590570,12.862355,77.610261,12.985362" projParameter="+proj=utm +zone=43 +ellps=WGS84 +datum=WGS84 +units=m +no_defs"/>

    <type id="highway.bridleway" priority="1" numLanes="1" speed="2.78" allow="pedestrian" oneway="1" width="2.00"/>
    <type id="highway.bus_guideway" priority="1" numLanes="1" speed="8.33" allow="bus" oneway="1"/>
    <type id="highway.cycleway" priority="1" numLanes="1" speed="5.56" allow="bicycle" oneway="0" width="1.00"/>
    <type id="highway.footway" priority="1" numLanes="1" speed="2.78" allow="pedestrian" oneway="1" width="2.00"/>
    <type id="highway.ford" priority="1" numLanes="1" speed="2.78" allow="army" oneway="0"/>
    <type id="highway.living_street" priority="3" numLanes="1" speed="2.78" disallow="tram rail_urban rail rail_electric ship" oneway="0"/>
    <type id="highway.motorway" priority="13" numLanes="2" speed="44.44" allow="private emergency authority army vip passenger hov taxi bus coach delivery truck trailer motorcycle evehicle custom1 custom2" oneway="1"/>
    <type id="highway.motorway_link" priority="12" numLanes="1" speed="22.22" allow="private emergency authority army vip passenger hov taxi bus coach delivery truck trailer motorcycle evehicle custom1 custom2" oneway="1"/>
    <type id="highway.path" priority="1" numLanes="1" speed="2.78" allow="bicycle pedestrian" oneway="1" width="2.00"/>
    <type id="highway.pedestrian" priority="1" numLanes="1" speed="2.78" allow="pedestrian" oneway="1" width="2.00"/>
    <type id="highway.primary" priority="9" numLanes="2" speed="27.78" disallow="tram rail_urban rail rail_electric ship" oneway="0"/>
    <type id="highway.primary_link" priority="8" numLanes="1" speed="22.22" disallow="tram rail_urban rail rail_electric ship" oneway="0"/>
    <type id="highway.raceway" priority="14" numLanes="2" speed="83.33" allow="vip" oneway="0"/>
    <type id="highway.residential" priority="4" numLanes="1" speed="13.89" disallow="tram rail_urban rail rail_electric ship" oneway="0"/>
    <type id="highway.secondary" priority="7" numLanes="2" speed="27.78" disallow="tram rail_urban rail rail_electric ship" oneway="0"/>
    <type id="highway.secondary_link" priority="6" numLanes="1" speed="22.22" disallow="tram rail_urban rail rail_electric ship" oneway="0"/>
    <type id="highway.service" priority="2" numLanes="1" speed="5.56" allow="delivery bicycle pedestrian" oneway="0"/>
    <type id="highway.services" priority="1" numLanes="1" speed="8.33" disallow="tram rail_urban rail rail_electric ship" oneway="0"/>
    <type id="highway.stairs" priority="1" numLanes="1" speed="1.39" allow="pedestrian" oneway="1" width="2.00"/>
    <type id="highway.step" priority="1" numLanes="1" speed="1.39" allow="pedestrian" oneway="1" width="2.00"/>
    <type id="highway.steps" priority="1" numLanes="1" speed="1.39" allow="pedestrian" oneway="1" width="2.00"/>
    <type id="highway.tertiary" priority="6" numLanes="1" speed="22.22" disallow="tram rail_urban rail rail_electric ship" oneway="0"/>
    <type id="highway.tertiary_link" priority="5" numLanes="1" speed="22.22" disallow="tram rail_urban rail rail_electric ship" oneway="0"/>
    <type id="highway.track" priority="1" numLanes="1" speed="5.56" disallow="tram rail_urban rail rail_electric ship" oneway="0"/>
    <type id="highway.trunk" priority="11" numLanes="2" speed="27.78" disallow="tram rail_urban rail rail_electric bicycle pedestrian ship" oneway="0"/>
    <type id="highway.trunk_link" priority="10" numLanes="1" speed="22.22" disallow="tram rail_urban rail rail_electric bicycle pedestrian ship" oneway="0"/>
    <type id="highway.unclassified" priority="5" numLanes="1" speed="13.89" disallow="tram rail_urban rail rail_electric ship" oneway="0"/>
    <type id="highway.unsurfaced" priority="1" numLanes="1" speed="8.33" disallow="tram rail_urban rail rail_electric ship" oneway="0"/>
    <type id="railway.light_rail" priority="15" numLanes="1" speed="27.78" allow="rail_urban" oneway="1"/>
    <type id="railway.preserved" priority="15" numLanes="1" speed="27.78" allow="rail" oneway="1"/>
    <type id="railway.rail" priority="15" numLanes="1" speed="83.33" allow="rail rail_electric" oneway="1"/>
    <type id="railway.subway" priority="15" numLanes="1" speed="27.78" allow="rail_urban" oneway="1"/>
    <type id="railway.tram" priority="15" numLanes="1" speed="13.89" allow="tram" oneway="1"/>

    <edge id=":1449013781_0" function="internal">
        <lane id=":1449013781_0_0" index="0" disallow="tram rail_urban rail rail_electric ship" speed="13.89" length="9.46" shape="1016.15,640.56 1025.07,637.42"/>
    </edge>
    <edge id=":1449013781_1" function="internal">
        <lane id=":1449013781_1_0" index="0" allow="delivery bicycle pedestrian" speed="9.73" length="7.91" shape="1016.15,640.56 1018.67,639.42 1020.36,638.17 1021.20,636.82 1021.20,635.36"/>
    </edge>
    <edge id=":1449013781_2" function="internal">
        <lane id=":1449013781_2_0" index="0" disallow="tram rail_urban rail rail_electric ship" speed="9.73" length="7.99" shape="1018.02,636.25 1018.80,637.53 1020.23,638.15 1022.33,638.12 1025.07,637.42"/>
    </edge>
    <edge id=":1449013781_3" function="internal">
        <lane id=":1449013781_3_0" index="0" allow="delivery bicycle pedestrian" speed="5.56" length="4.82" shape="1018.02,636.25 1019.15,637.22 1020.05,637.39 1020.74,636.78 1021.20,635.36"/>
    </edge>
    <edge id=":1449013782_0" function="internal">
        <lane id=":1449013782_0_0" index="0" disallow="tram rail_urban rail rail_electric ship" speed="13.89" length="9.50" shape="995.81,532.64 986.74,535.47"/>
    </edge>
    <edge id=":1449013782_1" function="internal">
        <lane id=":1449013782_1_0" index="0" allow="delivery bicycle pedestrian" speed="9.73" length="7.90" shape="995.81,532.64 993.21,533.66 991.48,534.82 990.60,536.12 990.59,537.57"/>
    </edge>
    <edge id=":1449013782_2" function="internal">
        <lane id=":1449013782_2_0" index="0" disallow="tram rail_urban rail rail_electric ship" speed="9.73" length="7.94" shape="993.77,536.68 993.01,535.43 991.58,534.81 989.49,534.82 986.74,535.47"/>
    </edge>
    <edge id=":1449013782_3" function="internal">
        <lane id=":1449013782_3_0" index="0" allow="delivery bicycle pedestrian" speed="5.56" length="4.82" shape="993.77,536.68 992.65,535.71 991.74,535.53 991.06,536.15 990.59,537.57"/>
    </edge>
    <edge id=":1523537059_0" function="internal">
        <lane id=":1523537059_0_0" index="0" disallow="tram rail_urban rail rail_electric ship" speed="13.89" length="6.09" shape="683.79,623.66 682.06,624.19 680.89,624.58 679.73,625.03 678.06,625.72"/>
    </edge>
    <edge id=":1523537059_1" function="internal">
        <lane id=":1523537059_1_0" index="0" disallow="tram rail_urban rail rail_electric ship" speed="18.05" length="3.32" shape="683.79,623.66 682.92,623.91 681.97,624.22 681.27,624.65 681.18,625.24"/>
    </edge>
    <edge id=":1523537059_2" function="internal">
        <lane id=":1523537059_2_0" index="0" disallow="tram rail_urban rail rail_electric ship" speed="18.05" length="5.02" shape="679.90,621.64 680.14,622.99 679.92,624.12 679.22,625.03 678.06,625.72"/>
    </edge>
    <edge id=":1523537059_3" function="internal">
        <lane id=":1523537059_3_0" index="0" disallow="tram rail_urban rail rail_electric ship" speed="22.22" length="3.82" shape="679.90,621.64 680.24,622.73 680.46,623.47 680.72,624.20 681.18,625.24"/>
    </edge>
    <edge id=":1523537066_0" function="internal">
        <lane id=":1523537066_0_0" index="0" disallow="tram rail_urban rail rail_electric ship" speed="22.22" length="0.96" shape="698.34,627.60 698.52,627.38 698.67,627.25 698.84,627.16 699.11,627.06"/>
    </edge>
    <edge id=":1523537141_0" function="internal">
        <lane id=":1523537141_0_0" index="0" disallow="tram rail_urban rail rail_electric ship" speed="22.22" length="12.54" shape="670.29,709.56 669.47,706.31 669.07,703.44 668.96,700.53 669.03,697.16"/>
    </edge>
    <edge id=":1523537141_1" function="internal">
        <lane id=":1523537141_1_0" index="0" allow="delivery bicycle pedestrian" speed="13.89" length="11.75" shape="670.29,709.56 669.45,706.39 668.72,703.81 667.59,701.47 665.53,699.04"/>
    </edge>
    <edge id=":1523537141_2" function="internal">
        <lane id=":1523537141_2_0" index="0" disallow="tram rail_urban rail rail_electric ship" speed="13.89" length="10.93" shape="663.23,701.40 665.65,703.14 667.43,703.00 668.55,701.01 669.03,697.16"/>
    </edge>
    <edge id=":1523537141_3" function="internal">
        <lane id=":1523537141_3_0" index="0" allow="delivery bicycle pedestrian" speed="5.56" length="4.82" shape="663.23,701.40 664.69,701.67 665.56,701.37 665.84,700.49 665.53,699.04"/>
    </edge>
    <edge id=":1523537144_0" function="internal">
        <lane id=":1523537144_0_0" index="0" allow="delivery bicycle pedestrian" speed="5.56" length="17.30" shape="654.94,692.82 652.47,696.17 649.44,699.63 646.03,702.59 642.46,704.44"/>
    </edge>
    <edge id=":1523537144_1" function="internal">
        <lane id=":1523537144_1_0" index="0" allow="delivery bicycle pedestrian" speed="5.56" length="17.55" shape="654.94,692.82 652.41,696.16 649.54,699.88 647.05,703.75 645.66,707.55"/>
    </edge>
    <edge id=":1523537144_2" function="internal">
        <lane id=":1523537144_2_0" index="0" allow="delivery bicycle pedestrian" speed="5.56" length="14.99" shape="654.94,692.82 651.96,697.81 651.35,700.63 653.11,701.29 657.25,699.78"/>
    </edge>
    <edge id=":1523537144_3" function="internal">
        <lane id=":1523537144_3_0" index="0" allow="delivery bicycle pedestrian" speed="5.56" length="15.40" shape="655.80,696.81 652.49,698.73 649.24,700.91 645.93,702.95 642.46,704.44"/>
    </edge>
    <edge id=":1523537144_4" function="internal">
        <lane id=":1523537144_4_0" index="0" allow="delivery bicycle pedestrian" speed="5.56" length="15.32" shape="655.80,696.81 651.74,699.16 648.70,701.73 646.67,704.53 645.66,707.55"/>
    </edge>
    <edge id=":1523537144_5" function="internal">
        <lane id=":1523537144_5_0" index="0" allow="delivery bicycle pedestrian" speed="5.56" length="4.82" shape="655.80,696.81 655.05,698.10 655.04,699.02 655.77,699.58 657.25,699.78"/>
    </edge>
    <edge id=":1523537148_0" function="internal">
        <lane id=":1523537148_0_0" index="0" allow="delivery bicycle pedestrian" speed="5.56" length="6.59" shape="634.26,706.93 628.00,709.02"/>
    </edge>
    <edge id=":1523537148_1" function="internal">
        <lane id=":1523537148_1_0" index="0" allow="delivery bicycle pedestrian" speed="5.56" length="5.89" shape="634.26,706.93 633.16,707.51 632.31,708.49 631.72,709.89 631.38,711.69"/>
    </edge>
    <edge id=":1523537149_0" function="internal">
        <lane id=":1523537149_0_0" index="0" allow="delivery bicycle pedestrian" speed="5.56" length="7.06" shape="622.14,711.08 615.60,713.74"/>
    </edge>
    <edge id=":1523537149_1" function="internal">
        <lane id=":1523537149_1_0" index="0" allow="delivery bicycle pedestrian" speed="5.56" length="6.53" shape="622.14,711.08 621.09,711.71 620.19,712.81 619.43,714.39 618.82,716.44"/>
    </edge>
    <edge id=":1567429325_0" function="internal">
        <lane id=":1567429325_0_0" index="0" disallow="tram rail_urban rail rail_electric ship" speed="13.89" length="4.82" shape="1155.94,949.09 1156.94,950.19 1157.81,950.48 1158.57,949.94 1159.20,948.60"/>
    </edge>
    <edge id=":1567429343_0" function="internal">
        <lane id=":1567429343_0_0" index="0" disallow="tram rail_urban rail rail_electric ship" speed="13.89" length="5.04" shape="992.34,715.01 990.31,710.41"/>
    </edge>
    <edge id=":1567429343_1" function="internal">
        <lane id=":1567429343_1_0" index="0" disallow="tram rail_urban rail rail_electric ship" speed="13.89" length="2.41" shape="992.34,715.01 991.08,714.22 990.16,714.19"/>
    </edge>
    <edge id=":1567429343_4" function="internal">
        <lane id=":1567429343_4_0" index="0" speed="13.89" length="2.41" shape="990.16,714.19 989.58,714.90 989.34,716.37"/>
    </edge>
    <edge id=":1567429343_2" function="internal">
        <lane id=":1567429343_2_0" index="0" disallow="tram rail_urban rail rail_electric ship" speed="13.89" length="5.09" shape="987.28,711.71 989.34,716.37"/>
    </edge>
    <edge id=":1567429343_3" function="internal">
        <lane id=":1567429343_3_0" index="0" disallow="tram rail_urban rail rail_electric ship" speed="13.89" length="2.41" shape="987.28,711.71 988.52,712.52 989.44,712.58"/>
    </edge>
    <edge id=":1567429343_5" function="internal">
        <lane id=":1567429343_5_0" index="0" speed="13.89" length="2.41" shape="989.44,712.58 990.04,711.87 990.31,710.41"/>
    </edge>
    <edge id=":1567429353_0" function="internal">
        <lane id=":1567429353_0_0" index="0" disallow="tram rail_urban rail rail_electric ship" speed="13.89" length="4.82" shape="1083.90,684.75 1082.67,683.92 1081.75,683.86 1081.14,684.55 1080.85,686.01"/>
    </edge>
    <edge id=":1567429357_0" function="internal">
        <lane id=":1567429357_0_0" index="0" disallow="tram rail_urban rail rail_electric ship" speed="13.89" length="5.06" shape="969.17,661.39 968.80,660.04 968.97,658.92 969.67,658.03 970.89,657.36"/>
    </edge>
    <edge id=":1567429357_1" function="internal">
        <lane id=":1567429357_1_0" index="0" disallow="tram rail_urban rail rail_electric ship" speed="13.89" length="5.76" shape="969.17,661.39 968.50,659.82 968.01,658.75 967.38,657.76 966.31,656.44"/>
    </edge>
    <edge id=":1567429357_2" function="internal">
        <lane id=":1567429357_2_0" index="0" disallow="tram rail_urban rail rail_electric ship" speed="13.89" length="2.41" shape="969.17,661.39 967.92,660.58 967.00,660.53"/>
    </edge>
    <edge id=":1567429357_6" function="internal">
        <lane id=":1567429357_6_0" index="0" speed="13.89" length="2.41" shape="967.00,660.53 966.41,661.24 966.14,662.70"/>
    </edge>
    <edge id=":1567429357_3" function="internal">
        <lane id=":1567429357_3_0" index="0" disallow="tram rail_urban rail rail_electric ship" speed="13.89" length="4.78" shape="963.79,658.58 964.68,659.68 965.19,660.50 965.59,661.39 966.14,662.70"/>
    </edge>
    <edge id=":1567429357_4" function="internal">
        <lane id=":1567429357_4_0" index="0" disallow="tram rail_urban rail rail_electric ship" speed="13.89" length="2.41" shape="963.79,658.58 964.58,658.90 966.03,658.81 966.13,658.79"/>
    </edge>
    <edge id=":1567429357_5" function="internal">
        <lane id=":1567429357_5_0" index="0" disallow="tram rail_urban rail rail_electric ship" speed="13.89" length="2.41" shape="963.79,658.58 965.22,658.98 966.12,658.76"/>
    </edge>
    <edge id=":1567429357_7" function="internal">
        <lane id=":1567429357_7_0" index="0" speed="13.89" length="4.97" shape="966.13,658.79 968.13,658.30 970.89,657.36"/>
    </edge>
    <edge id=":1567429357_8" function="internal">
        <lane id=":1567429357_8_0" index="0" speed="13.89" length="2.41" shape="966.12,658.76 966.48,657.91 966.31,656.44"/>
    </edge>
    <edge id=":249082186_0" function="internal">
        <lane id=":249082186_0_0" index="0" disallow="tram rail_urban rail rail_electric ship" speed="22.22" length="0.39" shape="1034.53,164.83 1034.54,164.95 1034.56,165.03 1034.58,165.10 1034.61,165.21"/>
    </edge>
    <edge id=":254665681_0" function="internal">
        <lane id=":254665681_0_0" index="0" disallow="tram rail_urban rail rail_electric ship" speed="22.22" length="5.04" shape="625.91,467.56 627.27,467.28 628.38,467.50 629.24,468.23 629.86,469.48"/>
    </edge>
    <edge id=":254665681_1" function="internal">
        <lane id=":254665681_1_0" index="0" disallow="tram rail_urban rail rail_electric ship" speed="22.22" length="6.31" shape="625.91,467.56 631.88,465.49"/>
    </edge>
    <edge id=":254665681_2" function="internal">
        <lane id=":254665681_2_0" index="0" disallow="tram rail_urban rail rail_electric ship" speed="22.22" length="6.31" shape="627.99,463.45 629.86,469.48"/>
    </edge>
    <edge id=":254665681_3" function="internal">
        <lane id=":254665681_3_0" index="0" disallow="tram rail_urban rail rail_electric ship" speed="22.22" length="5.05" shape="627.99,463.45 628.57,464.71 629.40,465.47 630.51,465.73 631.88,465.49"/>
    </edge>
    <edge id=":254665683_0" function="internal">
        <lane id=":254665683_0_0" index="0" disallow="tram rail_urban rail rail_electric ship" speed="22.22" length="5.01" shape="736.38,434.01 736.13,432.66 736.37,431.56 737.11,430.70 738.34,430.09"/>
    </edge>
    <edge id=":254665683_1" function="internal">
        <lane id=":254665683_1_0" index="0" disallow="tram rail_urban rail rail_electric ship" speed="22.22" length="6.24" shape="736.38,434.01 734.44,428.09"/>
    </edge>
    <edge id=":254665683_2" function="internal">
        <lane id=":254665683_2_0" index="0" disallow="tram rail_urban rail rail_electric ship" speed="22.22" length="6.21" shape="732.45,432.04 738.34,430.09"/>
    </edge>
    <edge id=":254665683_3" function="internal">
        <lane id=":254665683_3_0" index="0" disallow="tram rail_urban rail rail_electric ship" speed="22.22" length="5.03" shape="732.45,432.04 733.67,431.42 734.41,430.56 734.67,429.45 734.44,428.09"/>
    </edge>
    <edge id=":254665688_0" function="internal">
        <lane id=":254665688_0_0" index="0" disallow="tram rail_urban rail rail_electric ship" speed="25.00" length="6.24" shape="691.50,281.96 692.10,280.05 692.86,278.58 693.76,277.54 694.81,276.95"/>
    </edge>
    <edge id=":254665688_1" function="internal">
        <lane id=":254665688_1_0" index="0" disallow="tram rail_urban rail rail_electric ship" speed="27.78" length="6.76" shape="688.38,279.06 694.81,276.95"/>
        <lane id=":254665688_1_1" index="1" disallow="tram rail_urban rail rail_electric ship" speed="27.78" length="6.76" shape="687.35,275.93 693.77,273.82"/>
    </edge>
    <edge id=":287904671_0" function="internal">
        <lane id=":287904671_0_0" index="0" disallow="tram rail_urban rail rail_electric ship" speed="25.00" length="7.03" shape="579.10,314.82 581.46,314.29 583.26,314.33 584.52,314.97 585.23,316.18"/>
    </edge>
    <edge id=":287904671_1" function="internal">
        <lane id=":287904671_1_0" index="0" disallow="tram rail_urban rail rail_electric ship" speed="27.78" length="12.63" shape="579.10,314.82 591.15,310.94"/>
        <lane id=":287904671_1_1" index="1" disallow="tram rail_urban rail rail_electric ship" speed="27.78" length="12.63" shape="578.12,311.67 590.12,307.81"/>
    </edge>
    <edge id=":287904671_3" function="internal">
        <lane id=":287904671_3_0" index="0" disallow="tram rail_urban rail rail_electric ship" speed="27.78" length="12.84" shape="578.12,311.67 581.67,310.22 584.37,308.38 586.23,306.14 587.23,303.50"/>
    </edge>
    <edge id=":287904671_4" function="internal">
        <lane id=":287904671_4_0" index="0" disallow="tram rail_urban rail rail_electric ship" speed="25.00" length="13.30" shape="578.20,304.96 580.49,308.46 582.43,310.92 584.00,313.21 585.23,316.18"/>
    </edge>
    <edge id=":287904671_5" function="internal">
        <lane id=":287904671_5_0" index="0" disallow="tram rail_urban rail rail_electric ship" speed="27.78" length="11.05" shape="581.07,303.32 582.98,305.96 585.13,307.58 587.51,308.20 590.12,307.81"/>
    </edge>
    <edge id=":287904671_6" function="internal">
        <lane id=":287904671_6_0" index="0" disallow="tram rail_urban rail rail_electric ship" speed="27.78" length="5.08" shape="581.07,303.32 582.03,304.66 582.84,305.03 583.50,304.42 584.00,302.84"/>
    </edge>
    <edge id=":287904822_0" function="internal">
        <lane id=":287904822_0_0" index="0" disallow="tram rail_urban rail rail_electric ship" speed="18.05" length="5.05" shape="1146.55,482.33 1146.83,483.69 1146.60,484.80 1145.85,485.66 1144.59,486.26"/>
    </edge>
    <edge id=":287904822_1" function="internal">
        <lane id=":287904822_1_0" index="0" disallow="tram rail_urban rail rail_electric ship" speed="22.22" length="6.17" shape="1146.55,482.33 1148.70,488.11"/>
    </edge>
    <edge id=":287905080_0" function="internal">
        <lane id=":287905080_0_0" index="0" disallow="tram rail_urban rail rail_electric ship" speed="22.22" length="5.00" shape="1081.61,311.25 1082.95,310.97 1084.06,311.19 1084.93,311.90 1085.58,313.11"/>
    </edge>
    <edge id=":287905080_1" function="internal">
        <lane id=":287905080_1_0" index="0" disallow="tram rail_urban rail rail_electric ship" speed="22.22" length="10.30" shape="1081.61,311.25 1082.96,310.29 1084.09,308.45 1085.00,305.75 1085.69,302.18"/>
    </edge>
    <edge id=":287905080_2" function="internal">
        <lane id=":287905080_2_0" index="0" disallow="tram rail_urban rail rail_electric ship" speed="22.22" length="11.20" shape="1081.89,302.54 1085.58,313.11"/>
    </edge>
    <edge id=":287905080_3" function="internal">
        <lane id=":287905080_3_0" index="0" disallow="tram rail_urban rail rail_electric ship" speed="22.22" length="3.42" shape="1081.89,302.54 1083.12,305.39 1083.36,305.60"/>
    </edge>
    <edge id=":287905080_4" function="internal">
        <lane id=":287905080_4_0" index="0" speed="22.22" length="5.52" shape="1083.36,305.60 1084.16,306.28 1085.02,305.21 1085.69,302.18"/>
    </edge>
    <edge id=":287905127_0" function="internal">
        <lane id=":287905127_0_0" index="0" disallow="tram rail_urban rail rail_electric ship" speed="18.05" length="7.90" shape="794.27,593.51 791.62,592.89 789.68,592.03 788.45,590.95 787.93,589.63"/>
    </edge>
    <edge id=":287905127_1" function="internal">
        <lane id=":287905127_1_0" index="0" disallow="tram rail_urban rail rail_electric ship" speed="13.89" length="10.41" shape="794.27,593.51 791.27,593.00 789.10,592.78 786.95,592.95 784.00,593.63"/>
    </edge>
    <edge id=":287905127_2" function="internal">
        <lane id=":287905127_2_0" index="0" allow="delivery bicycle pedestrian" speed="9.73" length="10.48" shape="794.27,593.51 790.98,593.36 788.97,594.23 788.25,596.12 788.81,599.04"/>
    </edge>
    <edge id=":287905127_3" function="internal">
        <lane id=":287905127_3_0" index="0" disallow="tram rail_urban rail rail_electric ship" speed="13.89" length="9.33" shape="791.92,597.95 790.73,595.46 789.55,593.88 788.56,592.25 787.93,589.63"/>
    </edge>
    <edge id=":287905127_4" function="internal">
        <lane id=":287905127_4_0" index="0" disallow="tram rail_urban rail rail_electric ship" speed="9.73" length="10.12" shape="791.92,597.95 790.65,595.47 788.91,593.93 786.69,593.31 784.00,593.63"/>
    </edge>
    <edge id=":287905127_5" function="internal">
        <lane id=":287905127_5_0" index="0" allow="delivery bicycle pedestrian" speed="5.56" length="4.82" shape="791.92,597.95 790.73,597.05 789.82,596.94 789.18,597.60 788.81,599.04"/>
    </edge>
    <edge id=":287905127_6" function="internal">
        <lane id=":287905127_6_0" index="0" allow="delivery bicycle pedestrian" speed="13.89" length="6.22" shape="783.67,598.20 785.48,597.34 786.94,597.19 788.05,597.76 788.81,599.04"/>
    </edge>
    <edge id=":287905127_7" function="internal">
        <lane id=":287905127_7_0" index="0" disallow="tram rail_urban rail rail_electric ship" speed="22.22" length="10.15" shape="783.67,598.20 785.77,596.54 787.18,594.55 787.90,592.25 787.93,589.63"/>
    </edge>
    <edge id=":287905127_8" function="internal">
        <lane id=":287905127_8_0" index="0" disallow="tram rail_urban rail rail_electric ship" speed="18.05" length="14.69" shape="783.67,598.20 788.52,594.95 790.19,593.10 788.69,592.66 784.00,593.63"/>
    </edge>
    <edge id=":287905235_0" function="internal">
        <lane id=":287905235_0_0" index="0" allow="delivery bicycle pedestrian" speed="13.89" length="8.27" shape="662.50,692.14 661.25,694.12 659.93,695.12 658.26,695.77 655.98,696.73"/>
    </edge>
    <edge id=":287905235_1" function="internal">
        <lane id=":287905235_1_0" index="0" disallow="tram rail_urban rail rail_electric ship" speed="22.22" length="11.29" shape="662.50,692.14 661.20,695.02 660.43,697.37 659.92,699.79 659.42,702.93"/>
    </edge>
    <edge id=":287905235_2" function="internal">
        <lane id=":287905235_2_0" index="0" allow="delivery bicycle pedestrian" speed="13.89" length="6.35" shape="662.50,692.14 661.48,694.89 661.23,697.33 661.47,698.26"/>
    </edge>
    <edge id=":287905235_9" function="internal">
        <lane id=":287905235_9_0" index="0" speed="13.89" length="3.48" shape="661.47,698.26 661.77,699.45 663.09,701.27"/>
    </edge>
    <edge id=":287905235_3" function="internal">
        <lane id=":287905235_3_0" index="0" allow="delivery bicycle pedestrian" speed="5.56" length="10.34" shape="665.39,698.90 663.06,697.07 660.71,696.10 658.35,695.99 655.98,696.73"/>
    </edge>
    <edge id=":287905235_4" function="internal">
        <lane id=":287905235_4_0" index="0" disallow="tram rail_urban rail rail_electric ship" speed="13.89" length="10.06" shape="665.39,698.90 663.27,697.46 661.57,697.65 660.29,699.48 659.42,702.93"/>
    </edge>
    <edge id=":287905235_5" function="internal">
        <lane id=":287905235_5_0" index="0" allow="delivery bicycle pedestrian" speed="5.56" length="4.82" shape="665.39,698.90 663.92,698.63 663.05,698.93 662.77,699.81 663.09,701.27"/>
    </edge>
    <edge id=":287905235_6" function="internal">
        <lane id=":287905235_6_0" index="0" disallow="tram rail_urban rail rail_electric ship" speed="13.89" length="5.14" shape="657.43,699.69 658.56,699.40 659.27,699.84 659.56,701.02 659.42,702.93"/>
    </edge>
    <edge id=":287905235_7" function="internal">
        <lane id=":287905235_7_0" index="0" allow="delivery bicycle pedestrian" speed="5.56" length="6.28" shape="657.43,699.69 658.79,699.30 660.18,699.43 661.62,700.08 663.09,701.27"/>
    </edge>
    <edge id=":287905235_8" function="internal">
        <lane id=":287905235_8_0" index="0" allow="delivery bicycle pedestrian" speed="5.56" length="2.41" shape="657.43,699.69 658.18,698.41 658.19,697.48"/>
    </edge>
    <edge id=":287905235_10" function="internal">
        <lane id=":287905235_10_0" index="0" speed="5.56" length="2.41" shape="658.19,697.48 657.45,696.92 655.98,696.73"/>
    </edge>
    <edge id=":294079537_0" function="internal">
        <lane id=":294079537_0_0" index="0" allow="delivery bicycle pedestrian" speed="13.89" length="5.56" shape="681.27,625.42 681.11,626.43 680.29,627.83 679.28,629.21 678.54,630.16"/>
    </edge>
    <edge id=":294079537_1" function="internal">
        <lane id=":294079537_1_0" index="0" disallow="tram rail_urban rail rail_electric ship" speed="22.22" length="5.90" shape="681.27,625.42 681.92,627.03 682.18,628.19 682.31,629.40 682.57,631.14"/>
    </edge>
    <edge id=":294079548_0" function="internal">
        <lane id=":294079548_0_0" index="0" disallow="tram rail_urban rail rail_electric ship" speed="13.89" length="5.07" shape="353.28,724.43 351.92,724.64 350.81,724.36 349.94,723.60 349.31,722.35"/>
    </edge>
    <edge id=":294079548_1" function="internal">
        <lane id=":294079548_1_0" index="0" disallow="tram rail_urban rail rail_electric ship" speed="13.89" length="9.54" shape="353.28,724.43 344.20,727.36"/>
    </edge>
    <edge id=":294079548_2" function="internal">
        <lane id=":294079548_2_0" index="0" disallow="tram rail_urban rail rail_electric ship" speed="13.89" length="7.91" shape="353.28,724.43 350.67,725.44 348.93,726.61 348.08,727.92 348.10,729.37"/>
    </edge>
    <edge id=":294079548_3" function="internal">
        <lane id=":294079548_3_0" index="0" disallow="tram rail_urban rail rail_electric ship" speed="13.89" length="6.37" shape="351.26,728.42 349.31,722.35"/>
    </edge>
    <edge id=":294079548_4" function="internal">
        <lane id=":294079548_4_0" index="0" disallow="tram rail_urban rail rail_electric ship" speed="13.89" length="3.16" shape="351.26,728.42 350.47,727.18 349.02,726.60 348.89,726.60"/>
    </edge>
    <edge id=":294079548_5" function="internal">
        <lane id=":294079548_5_0" index="0" disallow="tram rail_urban rail rail_electric ship" speed="13.89" length="2.41" shape="351.26,728.42 350.11,727.47 349.20,727.32"/>
    </edge>
    <edge id=":294079548_9" function="internal">
        <lane id=":294079548_9_0" index="0" speed="13.89" length="4.78" shape="348.89,726.60 346.94,726.66 344.20,727.36"/>
    </edge>
    <edge id=":294079548_10" function="internal">
        <lane id=":294079548_10_0" index="0" speed="13.89" length="2.41" shape="349.20,727.32 348.53,727.95 348.10,729.37"/>
    </edge>
    <edge id=":294079548_6" function="internal">
        <lane id=":294079548_6_0" index="0" disallow="tram rail_urban rail rail_electric ship" speed="13.89" length="5.04" shape="346.19,723.42 346.44,724.76 346.19,725.87 345.45,726.74 344.20,727.36"/>
    </edge>
    <edge id=":294079548_7" function="internal">