<?xml version="1.0" encoding="UTF-8"?>

<!-- generated on Sat Nov 10 22:06:46 2018 by SUMO polyconvert Version 0.32.0
<?xml version="1.0" encoding="UTF-8"?>

<configuration xmlns:xsi="http://www.w3.org/2001/XMLSchema-instance" xsi:noNamespaceSchemaLocation="http://sumo.dlr.de/xsd/polyconvertConfiguration.xsd">

    <input>
        <net-file value="map.net.xml"/>
        <osm-files value="map.osm"/>
        <type-file value="typemap.xml"/>
    </input>

    <output>
        <output-file value="map.poly.xml"/>
    </output>

    <processing>
        <poi-layer-offset value="5"/>
    </processing>

</configuration>
-->

<additional xmlns:xsi="http://www.w3.org/2001/XMLSchema-instance" xsi:noNamespaceSchemaLocation="http://sumo.dlr.de/xsd/additional_file.xsd">
    <location netOffset="-781740.80,-1435979.39" convBoundary="-326.02,-4877.48,1876.79,983.95" origBoundary="77.590570,12.862355,77.614321,12.985362" projParameter="+proj=utm +zone=43 +ellps=WGS84 +datum=WGS84 +units=m +no_defs"/>

    <poly id="113785029" type="building" color="255,230,230" fill="1" layer="-1.00" shape="1065.47,405.40 1040.52,339.75 1080.86,325.12 1104.34,392.78 1065.47,405.40"/>
    <poly id="113785029#1" type="shop" color="237,199,255" fill="1" layer="-1.00" shape="1065.47,405.40 1040.52,339.75 1080.86,325.12 1104.34,392.78 1065.47,405.40"/>
    <poly id="115701110" type="leisure" color="207,245,201" fill="1" layer="-2.00" shape="526.34,862.61 607.28,838.70 563.16,724.70 511.24,740.24 491.58,747.15 526.44,829.65 515.65,834.07 526.34,862.61"/>
    <poly id="131683516" type="amenity" color="237,199,199" fill="1" layer="-1.00" shape="496.28,690.99 511.24,740.24 563.16,724.70 573.65,721.55 558.70,672.30 496.28,690.99"/>
    <poly id="131683727" type="amenity" color="237,199,199" fill="1" layer="-1.00" shape="1105.01,506.88 1120.33,557.30 1095.10,564.86 1079.79,514.45 1105.01,506.88"/>
    <poly id="131683727#1" type="building" color="255,230,230" fill="1" layer="-1.00" shape="1105.01,506.88 1120.33,557.30 1095.10,564.86 1079.79,514.45 1105.01,506.88"/>
    <poly id="131683728" type="amenity" color="237,199,199" fill="1" layer="-1.00" shape="963.15,662.42 975.09,691.19 938.42,703.22 929.38,670.54 963.15,662.42"/>
    <poly id="138382185" type="building" color="255,230,230" fill="1" layer="-1.00" shape="831.56,690.59 821.79,661.18 829.43,658.68 839.19,688.08 831.56,690.59"/>
    <poly id="138382188" type="building" color="255,230,230" fill="1" layer="-1.00" shape="826.04,704.52 809.50,653.91 852.86,639.37 869.95,689.67 826.04,704.52"/>
    <poly id="138382191" type="parking" color="184,184,179" fill="1" layer="-1.00" shape="640.15,816.87 611.63,724.13 619.04,721.88 632.55,717.78 646.88,713.43 656.45,710.52 684.98,803.25 673.31,806.80 660.43,810.71 649.06,814.16 640.15,816.87"/>
    <poly id="138382191#1" type="building" color="255,230,230" fill="1" layer="-1.00" shape="640.15,816.87 611.63,724.13 619.04,721.88 632.55,717.78 646.88,713.43 656.45,710.52 684.98,803.25 673.31,806.80 660.43,810.71 649.06,814.16 640.15,816.87"/>
    <poly id="157571627" type="building" color="255,230,230" fill="1" layer="-1.00" shape="421.89,490.80 402.34,428.01 415.61,423.93 435.16,486.72 421.89,490.80"/>
    <poly id="191352335" type="tourism" color="207,245,201" fill="1" layer="-2.00" shape="898.88,183.71 595.57,284.32 534.85,43.60 537.59,34.60 562.22,21.51 822.36,-39.90 846.29,30.02 814.83,40.60 855.92,164.46 888.71,153.97 898.88,183.71"/>
    <poly id="208748260" type="amenity" color="237,199,199" fill="1" layer="-1.00" shape="631.14,852.73 678.25,838.32 691.10,825.84 688.85,809.08 656.84,706.32 657.58,696.24 674.57,662.48 680.26,635.26 633.85,651.12 646.77,697.84 577.26,721.03 631.14,852.73"/>
    <poly id="234581207" type="building" color="255,230,230" fill="1" layer="-1.00" shape="574.02,714.86 562.39,679.00 601.19,667.54 611.85,702.04 574.02,714.86"/>
    <poly id="234581207#1" type="tourism" color="207,245,201" fill="1" layer="-2.00" shape="574.02,714.86 562.39,679.00 601.19,667.54 611.85,702.04 574.02,714.86"/>
    <poly id="28126916" type="building" color="255,230,230" fill="1" layer="-1.00" shape="173.45,293.43 179.39,305.81 186.52,316.83 194.55,326.46 201.85,333.51 209.07,339.31 218.62,345.57 228.25,350.53 238.64,354.59 247.53,357.13 256.68,358.89 266.80,359.90 278.81,359.86 292.89,358.06 304.63,355.08 315.82,350.86 327.07,345.04 338.39,337.29 346.84,329.90 355.08,320.92 362.66,310.39 368.28,300.28 372.67,289.89 376.09,278.39 378.17,266.65 378.90,254.06 378.20,242.08 375.89,229.19 372.42,217.87 367.93,207.44 362.51,197.79 356.60,189.41 350.24,181.98 341.63,173.78 332.57,166.88 324.05,161.66 314.90,157.17 303.57,153.00 290.48,149.90 277.29,148.47 263.93,148.69 251.41,150.43 238.76,153.77 227.37,158.27 217.73,163.35 208.33,169.63 199.52,176.99 191.47,185.35 184.47,194.43 178.20,204.74 173.39,215.13 169.94,225.20 167.42,236.14 166.06,247.70 165.97,259.02 167.12,270.41 169.68,282.28 173.45,293.43"/>
    <poly id="28126916#1" type="leisure" color="207,245,201" fill="1" layer="-2.00" shape="173.45,293.43 179.39,305.81 186.52,316.83 194.55,326.46 201.85,333.51 209.07,339.31 218.62,345.57 228.25,350.53 238.64,354.59 247.53,357.13 256.68,358.89 266.80,359.90 278.81,359.86 292.89,358.06 304.63,355.08 315.82,350.86 327.07,345.04 338.39,337.29 346.84,329.90 355.08,320.92 362.66,310.39 368.28,300.28 372.67,289.89 376.09,278.39 378.17,266.65 378.90,254.06 378.20,242.08 375.89,229.19 372.42,217.87 367.93,207.44 362.51,197.79 356.60,189.41 350.24,181.98 341.63,173.78 332.57,166.88 324.05,161.66 314.90,157.17 303.57,153.00 290.48,149.90 277.29,148.47 263.93,148.69 251.41,150.43 238.76,153.77 227.37,158.27 217.73,163.35 208.33,169.63 199.52,176.99 191.47,185.35 184.47,194.43 178.20,204.74 173.39,215.13 169.94,225.20 167.42,236.14 166.06,247.70 165.97,259.02 167.12,270.41 169.68,282.28 173.45,293.43"/>
    <poly id="28126916#2" type="sport" color="79,230,125" fill="1" layer="-2.00" shape="173.45,293.43 179.39,305.81 186.52,316.83 194.55,326.46 201.85,333.51 209.07,339.31 218.62,345.57 228.25,350.53 238.64,354.59 247.53,357.13 256.68,358.89 266.80,359.90 278.81,359.86 292.89,358.06 304.63,355.08 315.82,350.86 327.07,345.04 338.39,337.29 346.84,329.90 355.08,320.92 362.66,310.39 368.28,300.28 372.67,289.89 376.09,278.39 378.17,266.65 378.90,254.06 378.20,242.08 375.89,229.19 372.42,217.87 367.93,207.44 362.51,197.79 356.60,189.41 350.24,181.98 341.63,173.78 332.57,166.88 324.05,161.66 314.90,157.17 303.57,153.00 290.48,149.90 277.29,148.47 263.93,148.69 251.41,150.43 238.76,153.77 227.37,158.27 217.73,163.35 208.33,169.63 199.52,176.99 191.47,185.35 184.47,194.43 178.20,204.74 173.39,215.13 169.94,225.20 167.42,236.14 166.06,247.70 165.97,259.02 167.12,270.41 169.68,282.28 173.45,293.43"/>
    <poly id="286438277" type="building" color="255,230,230" fill="1" layer="-1.00" shape="543.37,347.04 575.33,336.49 581.74,355.67 549.78,366.21 543.37,347.04"/>
    <poly id="286438279" type="building" color="255,230,230" fill="1" layer="-1.00" shape="674.80,384.56 705.27,374.80 690.02,327.78 659.55,337.52 674.80,384.56"/>
    <poly id="286438892" type="building" color="255,230,230" fill="1" layer="-1.00" shape="934.56,379.65 967.97,368.48 971.63,379.28 938.22,390.45 934.56,379.65"/>
    <poly id="286441122" type="building" color="255,230,230" fill="1" layer="-1.00" shape="1021.09,354.34 1032.59,350.44 1034.86,353.40 1036.68,352.01 1053.24,397.39 1037.97,401.12 1021.09,354.34"/>
    <poly id="286441397" type="building" color="255,230,230" fill="1" layer="-1.00" shape="829.10,272.11 839.75,268.98 834.19,250.30 823.54,253.43 829.10,272.11"/>
    <poly id="331544184" type="building" color="255,230,230" fill="1" layer="-1.00" shape="401.09,440.39 396.91,428.50 387.90,431.63 392.08,443.52 401.09,440.39"/>
    <poly id="331544185" type="building" color="255,230,230" fill="1" layer="-1.00" shape="341.18,551.56 332.50,527.05 320.78,531.14 329.47,555.66 341.18,551.56"/>
    <poly id="331544186" type="building" color="255,230,230" fill="1" layer="-1.00" shape="399.98,478.68 397.14,463.29 409.48,461.04 412.32,476.44 399.98,478.68"/>
    <poly id="331544187" type="building" color="255,230,230" fill="1" layer="-1.00" shape="233.52,468.15 271.52,457.26 275.00,469.19 290.09,464.86 280.92,433.34 266.94,437.35 269.24,445.24 229.48,456.64 210.35,462.08 213.72,473.78 233.52,468.15"/>
    <poly id="331544189" type="building" color="255,230,230" fill="1" layer="-1.00" shape="390.21,539.48 377.06,491.01 385.52,488.75 398.67,537.21 390.21,539.48"/>
    <poly id="331544191" type="building" color="255,230,230" fill="1" layer="-1.00" shape="394.81,457.86 393.07,446.75 402.82,445.24 404.56,456.35 394.81,457.86"/>
    <poly id="331544192" type="building" color="255,230,230" fill="1" layer="-1.00" shape="219.01,559.51 211.14,561.44 208.45,550.66 215.28,548.98 212.71,538.70 233.79,533.51 239.04,554.57 219.01,559.51"/>
    <poly id="331544193" type="building" color="255,230,230" fill="1" layer="-1.00" shape="402.20,536.12 397.21,521.32 413.09,516.04 406.37,496.13 399.38,498.46 398.19,494.90 391.48,497.14 388.44,488.13 409.62,481.09 419.25,509.70 415.99,510.78 422.29,529.45 402.20,536.12"/>
    <poly id="331544194" type="building" color="255,230,230" fill="1" layer="-1.00" shape="617.98,697.15 606.46,661.99 621.43,657.16 628.91,662.42 638.15,690.64 617.98,697.15"/>
    <poly id="331544196" type="building" color="255,230,230" fill="1" layer="-1.00" shape="385.00,445.69 380.88,434.36 372.74,437.28 376.87,448.61 385.00,445.69"/>
    <poly id="331544197" type="building" color="255,230,230" fill="1" layer="-1.00" shape="353.31,521.18 347.73,505.20 370.80,497.26 376.38,513.23 353.31,521.18"/>
    <poly id="331544198" type="building" color="255,230,230" fill="1" layer="-1.00" shape="437.99,520.48 433.95,503.26 445.93,500.49 449.98,517.71 437.99,520.48"/>
    <poly id="331544199" type="building" color="255,230,230" fill="1" layer="-1.00" shape="345.95,550.78 338.12,525.04 322.95,522.51 320.34,512.63 342.05,506.47 354.06,548.76 345.95,550.78"/>
    <poly id="331544200" type="building" color="255,230,230" fill="1" layer="-1.00" shape="440.52,495.77 438.55,489.77 421.73,495.22 423.70,501.22 440.52,495.77"/>
    <poly id="331544202" type="building" color="255,230,230" fill="1" layer="-1.00" shape="375.77,487.32 362.08,444.45 341.27,451.02 354.97,493.89 375.77,487.32"/>
    <poly id="331544204" type="building" color="255,230,230" fill="1" layer="-1.00" shape="260.56,575.28 255.44,558.65 272.88,553.37 277.98,570.00 260.56,575.28"/>
    <poly id="331544205" type="building" color="255,230,230" fill="1" layer="-1.00" shape="301.36,566.40 291.59,538.19 314.43,530.38 324.21,558.60 301.36,566.40"/>
    <poly id="331544206" type="building" color="255,230,230" fill="1" layer="-1.00" shape="388.01,453.12 390.55,464.06 381.56,466.12 379.03,455.18 388.01,453.12"/>
    <poly id="331544207" type="building" color="255,230,230" fill="1" layer="-1.00" shape="1068.03,370.72 1059.13,348.19 1072.29,343.05 1081.19,365.58 1068.03,370.72"/>
    <poly id="331544207#1" type="shop" color="237,199,255" fill="1" layer="-1.00" shape="1068.03,370.72 1059.13,348.19 1072.29,343.05 1081.19,365.58 1068.03,370.72"/>
    <poly id="331544208" type="building" color="255,230,230" fill="1" layer="-1.00" shape="368.77,479.25 367.34,475.00 363.83,476.16 361.18,468.27 365.14,466.96 361.41,455.82 353.05,458.57 356.58,469.15 359.16,476.85 356.05,477.87 357.73,482.89 368.77,479.25"/>
    <poly id="331544209" type="building" color="255,230,230" fill="1" layer="-1.00" shape="395.80,482.17 392.83,469.79 383.56,471.97 386.52,484.36 395.80,482.17"/>
    <poly id="332907584" type="leisure" color="207,245,201" fill="1" layer="-2.00" shape="357.08,79.72 396.08,272.89 385.53,290.35 355.18,331.11 330.95,360.31 306.79,379.87 222.93,408.53 125.66,439.08 79.99,408.76 88.86,388.39 92.22,380.79 127.23,301.87 154.54,240.27 212.18,113.98 217.15,103.08 287.28,132.15 339.19,109.39 344.15,80.64 357.08,79.72"/>
    <poly id="332907587" type="amenity" color="237,199,199" fill="1" layer="-1.00" shape="463.96,99.14 399.89,247.22 373.14,113.38 358.51,30.17 500.66,28.77 504.59,35.05 520.04,95.53 488.95,97.54 495.09,81.48 494.75,78.51 485.52,69.53 468.45,78.62 463.96,99.14"/>
    <poly id="332907587#1" type="commercial" color="209,209,204" fill="1" layer="-3.00" shape="463.96,99.14 399.89,247.22 373.14,113.38 358.51,30.17 500.66,28.77 504.59,35.05 520.04,95.53 488.95,97.54 495.09,81.48 494.75,78.51 485.52,69.53 468.45,78.62 463.96,99.14"/>
    <poly id="345935864" type="building" color="255,230,230" fill="1" layer="-1.00" shape="379.13,731.47 381.93,740.40 378.36,741.51 382.03,753.22 387.46,751.54 384.74,742.86 387.29,742.07 390.01,750.76 395.11,749.18 388.63,728.54 379.13,731.47"/>
    <poly id="345935867" type="building" color="255,230,230" fill="1" layer="-1.00" shape="377.72,703.74 393.26,698.63 391.53,693.44 392.55,693.10 390.02,685.52 385.84,686.90 384.74,683.60 388.93,682.22 385.15,670.87 374.42,674.40 373.36,671.24 367.54,673.16 368.74,676.78 366.32,677.58 369.29,686.49 371.71,685.69 372.55,688.21 368.16,689.66 370.11,695.52 374.50,694.07 377.72,703.74"/>
    <poly id="345935885" type="building" color="255,230,230" fill="1" layer="-1.00" shape="473.03,658.26 479.02,678.13 497.99,672.47 492.00,652.61 473.03,658.26"/>
    <poly id="345935894" type="building" color="255,230,230" fill="1" layer="-1.00" shape="456.86,614.80 466.05,611.65 462.99,602.84 453.80,606.00 456.86,614.80"/>
    <poly id="345935906" type="building" color="255,230,230" fill="1" layer="-1.00" shape="418.48,605.12 436.10,599.04 432.16,587.74 414.54,593.83 418.48,605.12"/>
    <poly id="345935938" type="building" color="255,230,230" fill="1" layer="-1.00" shape="322.78,611.73 335.75,608.46 333.58,599.97 320.61,603.23 322.78,611.73"/>
    <poly id="345935944" type="building" color="255,230,230" fill="1" layer="-1.00" shape="362.08,736.03 366.43,748.42 375.53,745.26 371.18,732.87 362.08,736.03"/>
    <poly id="345935975" type="building" color="255,230,230" fill="1" layer="-1.00" shape="453.39,686.48 470.27,680.80 464.41,663.61 447.53,669.28 453.39,686.48"/>
    <poly id="345935982" type="building" color="255,230,230" fill="1" layer="-1.00" shape="422.14,607.87 426.20,619.07 440.97,613.80 436.91,602.59 422.14,607.87"/>
    <poly id="345935984" type="building" color="255,230,230" fill="1" layer="-1.00" shape="439.05,573.71 444.81,590.75 463.37,584.56 457.61,567.53 439.05,573.71"/>
    <poly id="345935987" type="building" color="255,230,230" fill="1" layer="-1.00" shape="406.07,554.86 408.62,563.34 427.06,557.90 424.52,549.40 406.07,554.86"/>
    <poly id="345936005" type="building" color="255,230,230" fill="1" layer="-1.00" shape="398.60,740.55 403.88,738.51 398.45,724.63 393.18,726.66 398.60,740.55"/>
    <poly id="345936026" type="building" color="255,230,230" fill="1" layer="-1.00" shape="243.31,683.59 261.03,677.30 248.00,641.09 230.27,647.38 243.31,683.59"/>
    <poly id="345936029" type="building" color="255,230,230" fill="1" layer="-1.00" shape="449.60,606.06 462.27,602.28 459.43,592.86 446.74,596.63 449.60,606.06"/>
    <poly id="345936030" type="building" color="255,230,230" fill="1" layer="-1.00" shape="409.28,642.16 403.98,625.39 390.55,629.58 395.84,646.35 409.28,642.16"/>
    <poly id="345936051" type="building" color="255,230,230" fill="1" layer="-1.00" shape="353.14,613.60 366.42,609.77 357.07,577.76 343.78,581.60 353.14,613.60"/>
    <poly id="345936074" type="building" color="255,230,230" fill="1" layer="-1.00" shape="397.99,750.19 425.40,742.11 422.22,731.44 407.64,735.73 409.40,741.67 396.58,745.45 397.99,750.19"/>
    <poly id="345946649" type="building" color="255,230,230" fill="1" layer="-1.00" shape="887.74,519.11 891.90,531.04 938.29,515.08 934.12,503.14 887.74,519.11"/>
    <poly id="345946650" type="building" color="255,230,230" fill="1" layer="-1.00" shape="884.88,515.19 918.96,503.33 914.65,491.08 880.56,502.94 884.88,515.19"/>
    <poly id="345946657" type="building" color="255,230,230" fill="1" layer="-1.00" shape="752.87,400.56 768.10,394.81 758.67,370.19 743.45,375.95 752.87,400.56"/>
    <poly id="345946666" type="building" color="255,230,230" fill="1" layer="-1.00" shape="550.87,487.35 563.40,483.04 556.06,461.93 543.53,466.24 550.87,487.35"/>
    <poly id="345946708" type="building" color="255,230,230" fill="1" layer="-1.00" shape="880.98,494.98 928.00,478.32 922.32,459.63 874.43,476.25 880.98,494.98"/>
    <poly id="345946712" type="building" color="255,230,230" fill="1" layer="-1.00" shape="720.48,356.31 749.24,348.53 746.57,337.08 717.07,343.87 720.48,356.31"/>
    <poly id="345946720" type="building" color="255,230,230" fill="1" layer="-1.00" shape="507.72,569.92 533.67,561.62 528.24,544.87 502.28,553.17 507.72,569.92"/>
    <poly id="345946724" type="building" color="255,230,230" fill="1" layer="-1.00" shape="545.59,383.35 557.95,421.27 599.23,407.96 586.86,370.05 545.59,383.35"/>
    <poly id="345946729" type="building" color="255,230,230" fill="1" layer="-1.00" shape="785.08,392.05 811.05,382.26 804.03,363.88 778.07,373.66 785.08,392.05"/>
    <poly id="346434929" type="building" color="255,230,230" fill="1" layer="-1.00" shape="753.07,348.34 748.86,350.15 749.73,352.16 741.22,355.80 742.09,357.80 738.14,359.50 744.29,373.62 749.42,371.41 748.24,368.69 755.08,365.75 756.27,368.47 758.72,367.41 758.16,366.11 760.39,365.16 753.07,348.34"/>
    <poly id="346434935" type="building" color="255,230,230" fill="1" layer="-1.00" shape="738.52,557.90 767.57,549.99 764.56,539.06 735.50,546.96 738.52,557.90"/>
    <poly id="346434938" type="building" color="255,230,230" fill="1" layer="-1.00" shape="569.04,483.06 591.21,476.20 587.18,463.32 565.00,470.18 569.04,483.06"/>
    <poly id="346434941" type="building" color="255,230,230" fill="1" layer="-1.00" shape="648.87,455.20 653.34,453.79 650.58,445.13 646.12,446.53 648.87,455.20"/>
    <poly id="346434943" type="building" color="255,230,230" fill="1" layer="-1.00" shape="615.74,578.43 629.55,574.71 627.21,566.17 613.40,569.90 615.74,578.43"/>
    <poly id="346434945" type="building" color="255,230,230" fill="1" layer="-1.00" shape="907.72,306.35 913.47,304.36 910.25,295.17 904.50,297.16 907.72,306.35"/>
    <poly id="346434955" type="building" color="255,230,230" fill="1" layer="-1.00" shape="936.10,263.94 954.48,257.64 949.85,244.26 931.46,250.56 936.10,263.94"/>
    <poly id="346434960" type="building" color="255,230,230" fill="1" layer="-1.00" shape="963.64,269.57 982.36,264.18 978.39,250.56 959.66,255.94 963.64,269.57"/>
    <poly id="346434962" type="building" color="255,230,230" fill="1" layer="-1.00" shape="994.01,608.67 1004.30,605.63 994.35,572.29 984.06,575.33 994.01,608.67"/>
    <poly id="346434964" type="building" color="255,230,230" fill="1" layer="-1.00" shape="957.27,614.08 951.70,589.24 933.35,593.31 938.93,618.14 957.27,614.08"/>
    <poly id="346434987" type="building" color="255,230,230" fill="1" layer="-1.00" shape="756.55,413.52 770.69,408.76 767.84,400.42 753.70,405.18 756.55,413.52"/>
    <poly id="346434997" type="building" color="255,230,230" fill="1" layer="-1.00" shape="940.56,350.49 944.21,349.47 938.67,329.67 935.02,330.68 940.56,350.49"/>
    <poly id="346434999" type="building" color="255,230,230" fill="1" layer="-1.00" shape="942.85,323.80 954.34,320.38 950.24,306.80 938.75,310.21 942.85,323.80"/>
    <poly id="346435001" type="building" color="255,230,230" fill="1" layer="-1.00" shape="660.43,528.50 670.08,525.07 665.28,511.71 655.62,515.13 660.43,528.50"/>
    <poly id="346435007" type="building" color="255,230,230" fill="1" layer="-1.00" shape="924.22,393.41 933.15,391.73 930.71,378.96 921.79,380.64 924.22,393.41"/>
    <poly id="346435013" type="building" color="255,230,230" fill="1" layer="-1.00" shape="543.55,662.73 567.91,655.00 555.45,616.21 531.10,623.93 543.55,662.73"/>
    <poly id="346435018" type="building" color="255,230,230" fill="1" layer="-1.00" shape="606.21,645.02 622.05,640.63 617.30,623.67 601.45,628.06 606.21,645.02"/>
    <poly id="346435021" type="building" color="255,230,230" fill="1" layer="-1.00" shape="1007.86,585.93 1022.22,636.38 1028.41,634.64 1014.03,584.19 1007.86,585.93"/>
    <poly id="346435042" type="building" color="255,230,230" fill="1" layer="-1.00" shape="982.73,304.43 996.79,300.15 992.07,284.88 978.02,289.16 982.73,304.43"/>
    <poly id="346435044" type="building" color="255,230,230" fill="1" layer="-1.00" shape="560.20,439.49 578.08,432.92 575.25,425.30 557.37,431.88 560.20,439.49"/>
    <poly id="346435056" type="building" color="255,230,230" fill="1" layer="-1.00" shape="569.91,656.96 588.68,650.95 585.39,640.80 566.63,646.81 569.91,656.96"/>
    <poly id="346435060" type="building" color="255,230,230" fill="1" layer="-1.00" shape="515.30,588.85 543.56,580.72 538.85,564.57 510.59,572.71 515.30,588.85"/>
    <poly id="346435065" type="building" color="255,230,230" fill="1" layer="-1.00" shape="901.23,277.95 913.16,274.69 908.77,258.80 896.83,262.05 901.23,277.95"/>
    <poly id="346435071" type="building" color="255,230,230" fill="1" layer="-1.00" shape="933.42,308.62 949.35,301.61 946.83,295.96 930.89,302.96 933.42,308.62"/>
    <poly id="346435080" type="building" color="255,230,230" fill="1" layer="-1.00" shape="1027.70,236.76 1039.93,236.48 1039.73,227.64 1027.50,227.92 1027.70,236.76"/>
    <poly id="346435082" type="building" color="255,230,230" fill="1" layer="-1.00" shape="794.92,550.93 816.70,543.58 809.05,521.19 787.27,528.53 794.92,550.93"/>
    <poly id="346435084" type="building" color="255,230,230" fill="1" layer="-1.00" shape="515.98,453.14 528.66,448.77 519.28,421.94 506.61,426.31 515.98,453.14"/>
    <poly id="346435086" type="building" color="255,230,230" fill="1" layer="-1.00" shape="948.69,347.93 968.27,342.28 962.52,322.63 942.93,328.29 948.69,347.93"/>
    <poly id="346435090" type="building" color="255,230,230" fill="1" layer="-1.00" shape="655.29,452.88 659.43,451.24 656.04,442.77 651.88,444.42 655.29,452.88"/>
    <poly id="346435092" type="building" color="255,230,230" fill="1" layer="-1.00" shape="631.49,574.43 643.21,570.49 640.46,562.41 628.74,566.36 631.49,574.43"/>
    <poly id="346435094" type="building" color="255,230,230" fill="1" layer="-1.00" shape="1035.45,255.27 1046.67,251.28 1043.64,242.86 1032.42,246.86 1035.45,255.27"/>
    <poly id="346435096" type="building" color="255,230,230" fill="1" layer="-1.00" shape="801.65,574.00 824.23,566.99 818.09,547.49 795.52,554.50 801.65,574.00"/>
    <poly id="346435101" type="building" color="255,230,230" fill="1" layer="-1.00" shape="560.96,452.12 568.02,450.26 565.81,441.95 558.74,443.80 560.96,452.12"/>
    <poly id="346435109" type="building" color="255,230,230" fill="1" layer="-1.00" shape="939.93,585.64 951.68,582.61 945.50,559.05 933.76,562.09 939.93,585.64"/>
    <poly id="346435111" type="building" color="255,230,230" fill="1" layer="-1.00" shape="991.01,332.71 1007.23,326.39 999.26,306.24 983.06,312.56 991.01,332.71"/>
    <poly id="346435115" type="building" color="255,230,230" fill="1" layer="-1.00" shape="662.41,331.46 686.28,324.95 680.24,303.10 656.36,309.61 662.41,331.46"/>
    <poly id="346435136" type="building" color="255,230,230" fill="1" layer="-1.00" shape="273.53,472.41 278.21,485.20 293.81,479.57 289.13,466.77 273.53,472.41"/>
    <poly id="346435138" type="building" color="255,230,230" fill="1" layer="-1.00" shape="496.92,594.36 507.96,590.59 504.49,580.53 493.45,584.28 496.92,594.36"/>
    <poly id="346435142" type="building" color="255,230,230" fill="1" layer="-1.00" shape="384.58,621.21 405.49,614.81 393.54,576.21 372.63,582.59 384.58,621.21"/>
    <poly id="346435154" type="building" color="255,230,230" fill="1" layer="-1.00" shape="898.43,255.23 906.39,253.22 902.91,239.62 894.95,241.63 898.43,255.23"/>
    <poly id="346435162" type="building" color="255,230,230" fill="1" layer="-1.00" shape="998.16,629.77 1008.14,627.53 1003.72,608.05 993.74,610.27 998.16,629.77"/>
    <poly id="346435164" type="building" color="255,230,230" fill="1" layer="-1.00" shape="461.93,640.73 486.91,632.07 482.66,619.96 457.67,628.61 461.93,640.73"/>
    <poly id="346435187" type="building" color="255,230,230" fill="1" layer="-1.00" shape="692.53,541.91 722.34,532.56 717.63,517.71 687.81,527.07 692.53,541.91"/>
    <poly id="346435193" type="building" color="255,230,230" fill="1" layer="-1.00" shape="758.57,474.71 766.78,471.99 763.25,461.52 755.04,464.25 758.57,474.71"/>
    <poly id="346435195" type="building" color="255,230,230" fill="1" layer="-1.00" shape="896.00,309.88 905.19,306.60 900.44,293.49 891.25,296.77 896.00,309.88"/>
    <poly id="346435197" type="building" color="255,230,230" fill="1" layer="-1.00" shape="660.26,449.88 671.47,446.17 669.00,438.77 657.79,442.48 660.26,449.88"/>
    <poly id="346435206" type="building" color="255,230,230" fill="1" layer="-1.00" shape="890.40,341.84 896.74,339.89 893.38,329.08 887.04,331.03 890.40,341.84"/>
    <poly id="346435213" type="building" color="255,230,230" fill="1" layer="-1.00" shape="1014.01,251.00 1020.52,248.04 1016.83,240.04 1010.32,243.00 1014.01,251.00"/>
    <poly id="346435215" type="building" color="255,230,230" fill="1" layer="-1.00" shape="882.94,328.80 891.86,326.15 888.96,316.44 880.02,319.08 882.94,328.80"/>
    <poly id="346435223" type="building" color="255,230,230" fill="1" layer="-1.00" shape="940.04,296.00 952.06,292.26 949.78,285.04 937.76,288.79 940.04,296.00"/>
    <poly id="346435225" type="building" color="255,230,230" fill="1" layer="-1.00" shape="644.17,570.24 648.66,568.98 644.43,554.22 639.96,555.48 644.17,570.24"/>
    <poly id="346435231" type="building" color="255,230,230" fill="1" layer="-1.00" shape="481.34,454.98 450.75,465.72 457.21,483.87 487.80,473.13 481.34,454.98"/>
    <poly id="346435232" type="building" color="255,230,230" fill="1" layer="-1.00" shape="1069.02,307.49 1064.58,291.71 1051.28,295.10 1055.73,311.49 1069.02,307.49"/>
    <poly id="346435236" type="building" color="255,230,230" fill="1" layer="-1.00" shape="1004.58,235.35 1014.57,232.60 1010.05,216.34 1000.06,219.08 1004.58,235.35"/>
    <poly id="346435238" type="building" color="255,230,230" fill="1" layer="-1.00" shape="858.71,300.99 826.85,313.74 840.01,346.14 871.86,333.38 858.71,300.99"/>
    <poly id="346435240" type="building" color="255,230,230" fill="1" layer="-1.00" shape="946.95,243.90 958.07,240.11 951.51,221.14 940.38,224.95 946.95,243.90"/>
    <poly id="346435242" type="building" color="255,230,230" fill="1" layer="-1.00" shape="987.54,257.26 1010.96,248.81 1007.13,238.38 983.73,246.83 987.54,257.26"/>
    <poly id="346435244" type="building" color="255,230,230" fill="1" layer="-1.00" shape="863.43,279.63 875.61,276.22 873.23,267.87 861.05,271.27 863.43,279.63"/>
    <poly id="346435271" type="building" color="255,230,230" fill="1" layer="-1.00" shape="579.57,462.95 596.79,457.01 588.52,433.35 571.30,439.28 579.57,462.95"/>
    <poly id="346435283" type="building" color="255,230,230" fill="1" layer="-1.00" shape="1010.96,578.54 1031.08,571.24 1024.97,554.65 1004.86,561.95 1010.96,578.54"/>
    <poly id="346435291" type="building" color="255,230,230" fill="1" layer="-1.00" shape="896.50,313.81 898.72,318.64 912.23,312.51 910.02,307.69 896.50,313.81"/>
    <poly id="346435311" type="building" color="255,230,230" fill="1" layer="-1.00" shape="920.97,315.45 932.59,310.82 929.48,303.08 917.85,307.71 920.97,315.45"/>
    <poly id="346435343" type="building" color="255,230,230" fill="1" layer="-1.00" shape="773.58,412.09 786.21,407.72 781.34,393.76 768.69,398.11 773.58,412.09"/>
    <poly id="346435349" type="building" color="255,230,230" fill="1" layer="-1.00" shape="637.53,459.26 646.31,456.58 644.27,450.01 635.49,452.70 637.53,459.26"/>
    <poly id="346435384" type="building" color="255,230,230" fill="1" layer="-1.00" shape="937.11,266.22 939.81,274.58 957.39,268.95 954.69,260.60 937.11,266.22"/>
    <poly id="346435414" type="building" color="255,230,230" fill="1" layer="-1.00" shape="965.08,311.90 981.19,305.30 974.83,289.99 958.73,296.59 965.08,311.90"/>
    <poly id="346435418" type="building" color="255,230,230" fill="1" layer="-1.00" shape="1056.76,530.58 1077.20,525.21 1075.33,518.19 1054.88,523.56 1056.76,530.58"/>
    <poly id="346435420" type="building" color="255,230,230" fill="1" layer="-1.00" shape="581.16,432.95 596.04,427.71 592.84,418.75 577.97,423.98 581.16,432.95"/>
    <poly id="346435431" type="building" color="255,230,230" fill="1" layer="-1.00" shape="1055.42,533.37 1059.69,547.17 1085.10,539.43 1080.83,525.61 1055.42,533.37"/>
    <poly id="346435437" type="building" color="255,230,230" fill="1" layer="-1.00" shape="1019.06,462.73 1071.37,447.66 1059.11,405.65 1006.80,420.73 1019.06,462.73"/>
    <poly id="346435449" type="building" color="255,230,230" fill="1" layer="-1.00" shape="516.97,663.82 536.49,658.10 526.43,624.19 506.90,629.90 516.97,663.82"/>
    <poly id="346435452" type="building" color="255,230,230" fill="1" layer="-1.00" shape="996.71,270.81 1010.69,269.83 1009.63,255.10 995.65,256.10 996.71,270.81"/>
    <poly id="346435493" type="building" color="255,230,230" fill="1" layer="-1.00" shape="366.93,544.71 383.00,540.78 377.70,519.41 361.63,523.34 366.93,544.71"/>
    <poly id="346435497" type="building" color="255,230,230" fill="1" layer="-1.00" shape="959.52,575.87 975.24,570.77 968.16,549.29 952.44,554.40 959.52,575.87"/>
    <poly id="346435509" type="building" color="255,230,230" fill="1" layer="-1.00" shape="980.22,569.74 995.62,564.68 989.33,545.80 973.93,550.85 980.22,569.74"/>
    <poly id="346435512" type="building" color="255,230,230" fill="1" layer="-1.00" shape="805.30,357.98 818.28,354.41 811.71,330.78 798.72,334.35 805.30,357.98"/>
    <poly id="346435514" type="building" color="255,230,230" fill="1" layer="-1.00" shape="1090.05,599.00 1099.69,596.14 1095.78,583.11 1086.13,585.96 1090.05,599.00"/>