<?xml version="1.0" encoding="UTF-8"?>

<!-- generated on Sat Nov 10 22:16:11 2018 by SUMO duarouter Version 0.32.0
<?xml version="1.0" encoding="UTF-8"?>

<configuration xmlns:xsi="http://www.w3.org/2001/XMLSchema-instance" xsi:noNamespaceSchemaLocation="http://sumo.dlr.de/xsd/duarouterConfiguration.xsd">

    <input>
        <net-file value="map.net.xml"/>
        <route-files value="trips.trips.xml"/>
    </input>

    <output>
        <output-file value="map.rou.xml"/>
        <alternatives-output value="map.rou.alt.xml"/>
    </output>

    <processing>
        <ignore-errors value="true"/>
    </processing>

    <time>
        <begin value="0"/>
        <end value="3600"/>
    </time>

    <report>
        <no-warnings value="true"/>
        <no-step-log value="true"/>
    </report>

</configuration>
-->

<routes xmlns:xsi="http://www.w3.org/2001/XMLSchema-instance" xsi:noNamespaceSchemaLocation="http://sumo.dlr.de/xsd/routes_file.xsd">
    <vehicle id="1" depart="1.00">
        <route edges="26283723#4 138980164#0 107215084 45444005 107215079#0 26283729#0 631820140#0 631820140#1 631820140#2"/>
    </vehicle>
    <vehicle id="2" depart="2.00">
        <route edges="332907586 107215088#1"/>
    </vehicle>
    <vehicle id="3" depart="3.00">
        <route edges="107215077#0 107215077#1 107215077#2 107215077#3 107215077#4 45444035 26283723#2 143240397#0 143240397#1 143240397#2 -143240397#2"/>
    </vehicle>
    <vehicle id="4" depart="4.00">
        <route edges="52246044#0 52246044#1 52246044#2 52246044#3 45444005 107215079#0 359476590#0 542070647#1 107215088#0 -332907586 332907586"/>
    </vehicle>
    <vehicle id="8" depart="8.00">
        <route edges="-143240397#1 -143240397#0 26283723#3 26283723#4 138980164#0 138980164#1 138980164#2"/>
    </vehicle>
    <vehicle id="9" depart="9.00">
        <route edges="631820140#1 631820140#2 -631820140#0 26283729#1 107215077#3 107215077#4 107215077#5 107215077#6 142664922#0"/>
    </vehicle>
    <vehicle id="11" depart="11.00">
        <route edges="-370403491 107215077#6 142664922#0 26283723#0 26283723#1 -45444035 45444035"/>
    </vehicle>
    <vehicle id="14" depart="14.00">
        <route edges="138980164#0 107215084 -107215084"/>
    </vehicle>
    <vehicle id="15" depart="15.00">
        <route edges="36913437#0 -36913437#0 52246044#1 52246044#2 52246044#3 107215077#0"/>
    </vehicle>
    <vehicle id="16" depart="16.00">
        <route edges="52246044#0 52246044#1 52246044#2 52246044#3 107215077#0 107215077#1 107215077#2 107215077#3 107215077#4 45444035 26283723#2 143240397#0 143240397#1 143240397#2"/>
    </vehicle>
    <vehicle id="18" depart="18.00">
        <route edges="23515741#0 107215077#4 45444035 26283723#2 26283723#3 26283723#4 138980164#0 138980164#1 36913440"/>
    </vehicle>
    <vehicle id="19" depart="19.00">
        <route edges="26283723#3 23515741#0 107215077#4 107215077#5 107215077#6 142664922#0 142664922#1"/>
    </vehicle>
    <vehicle id="20" depart="20.00">
        <route edges="26283723#4 138980164#0 107215084 45444005 107215079#0 359476590#0 542070647#1 107215088#0 107215088#1"/>
    </vehicle>
    <vehicle id="29" depart="29.00">
        <route edges="-631820140#2 631820140#2 -631820140#0 26283729#1 107215077#3 107215077#4 45444035"/>
    </vehicle>
    <vehicle id="30" depart="30.00">
        <route edges="107215077#4 45444035 26283723#2 26283723#3 26283723#4 138980164#0 107215084 45444005 107215079#0"/>
    </vehicle>
    <vehicle id="35" depart="35.00">
        <route edges="52246044#0 52246044#1 52246044#2 52246044#3 -107215084 107215084"/>
    </vehicle>
    <vehicle id="39" depart="39.00">
        <route edges="107215079#0 26283729#0 26283729#1 107215077#3 107215077#4 45444035"/>
    </vehicle>
    <vehicle id="40" depart="40.00">
        <route edges="-107215084 107215084 107215077#0 107215077#1 107215077#2 26283729#2 26283729#3 138980164#0"/>
    </vehicle>
    <vehicle id="43" depart="43.00">
        <route edges="107215077#6 142664922#0 26283723#0 26283723#1 26283723#2 143240397#0 143240397#1 143240397#2 -143240397#2"/>
    </vehicle>
    <vehicle id="44" depart="44.00">
        <route edges="143240397#2 -143240397#2 -143240397#1 -143240397#0 26283723#3 26283723#4 138980164#0 138980164#1 36913440 -36913440"/>
    </vehicle>
    <vehicle id="47" depart="47.00">
        <route edges="-36913437#0 52246044#1 52246044#2 52246044#3 107215077#0 107215077#1 107215077#2 107215077#3 23515741#1 107215079#2 107215079#3"/>
    </vehicle>
    <vehicle id="49" depart="49.00">
        <route edges="36913437#1 -36913437#1 -36913437#0 52246044#1 52246044#2 52246044#3 107215077#0 107215077#1 107215077#2 26283729#2"/>
    </vehicle>
    <vehicle id="52" depart="52.00">
        <route edges="362900185#1 107215079#0 26283729#0 26283729#1 107215077#3 107215077#4 45444035 26283723#2 143240397#0 -143240397#0"/>
    </vehicle>
    <vehicle id="53" depart="53.00">
        <route edges="370403491 -370403491 107215077#6 142664922#0 26283723#0 26283723#1 26283723#2 26283723#3 26283723#4"/>
    </vehicle>
    <vehicle id="56" depart="56.00">
        <route edges="26283723#0 26283723#1 26283723#2 26283723#3 26283723#4 138980164#0 107215084 45444005 107215079#0 359476590#0 542070647#1 107215088#0 -332907586 332907586"/>
    </vehicle>
    <vehicle id="57" depart="57.00">
        <route edges="36913437#0 -36913437#0 52246044#1 52246044#2 52246044#3 107215077#0 107215077#1 107215077#2 107215077#3 107215077#4 45444035 26283723#2 143240397#0"/>
    </vehicle>
    <vehicle id="58" depart="58.00">
        <route edges="323813903#1 464712045 26283729#0 26283729#1 107215077#3 107215077#4 45444035 26283723#2 143240397#0 -143240397#0"/>
    </vehicle>
    <vehicle id="59" depart="59.00">
        <route edges="36913437#0 -36913437#0 52246044#1 52246044#2 52246044#3 45444005 107215079#0 26283729#0 631820140#0 631820140#1 -631820140#1"/>
    </vehicle>
    <vehicle id="60" depart="60.00">
        <route edges="36913440 -36913440 138980164#2 -36913437#0 36913437#0"/>
    </vehicle>
    <vehicle id="64" depart="64.00">
        <route edges="26283723#3 23515741#0 107215077#4 45444035 26283723#2"/>
    </vehicle>
    <vehicle id="67" depart="67.00">
        <route edges="107215077#4 45444035 26283723#2 26283723#3 23515741#0 23515741#1 107215079#2 107215079#3"/>
    </vehicle>
    <vehicle id="70" depart="70.00">
        <route edges="359476590#1 359476590#2 323813903#0 323813903#1 464712045 26283729#0 26283729#1 107215077#3 107215077#4 45444035 26283723#2 143240397#0 143240397#1"/>
    </vehicle>
    <vehicle id="73" depart="73.00">
        <route edges="542070647#0 359476590#1"/>
    </vehicle>
    <vehicle id="74" depart="74.00">
        <route edges="107215079#0 26283729#0 26283729#1 26283729#2 26283729#3 26283729#4 26283729#5 26283729#6"/>
    </vehicle>
    <vehicle id="75" depart="75.00">
        <route edges="52246044#0 52246044#1 52246044#2 52246044#3 45444005 107215079#0 359476590#0 542070647#1 107215088#0 -332907586"/>
    </vehicle>
    <vehicle id="76" depart="76.00">
        <route edges="-631820140#2 631820140#2 -631820140#0 26283729#1 26283729#2 26283729#3 138980164#0 107215084 45444005 107215079#0 359476590#0 359476590#1 359476590#2 323813903#0 323813903#1"/>
    </vehicle>
    <vehicle id="77" depart="77.00">
        <route edges="-631820140#1 -631820140#0 26283729#1 26283729#2 26283729#3 138980164#0 107215084 45444005 107215079#0"/>
    </vehicle>
    <vehicle id="78" depart="78.00">
        <route edges="26283729#0 26283729#1 26283729#2 26283729#3 138980164#0 138980164#1 36913440 -36913440"/>
    </vehicle>
    <vehicle id="79" depart="79.00">
        <route edges="143240397#2 -143240397#2 -143240397#1 -143240397#0 26283723#3 23515741#0 107215077#4 45444035"/>
    </vehicle>
    <vehicle id="83" depart="83.00">
        <route edges="45444005 107215079#0 26283729#0 26283729#1 26283729#2 26283729#3 138980164#0 138980164#1 36913440 -36913440"/>
    </vehicle>
    <vehicle id="84" depart="84.00">
        <route edges="120511754#1 142664922#0 26283723#0 26283723#1 26283723#2"/>
    </vehicle>
    <vehicle id="85" depart="85.00">
        <route edges="-36913437#1 -36913437#0 52246044#1 52246044#2 52246044#3 45444005 107215079#0 359476590#0 542070647#1 107215088#0 107215088#1"/>
    </vehicle>
    <vehicle id="88" depart="88.00">
        <route edges="138980164#0 107215084 45444005"/>
    </vehicle>
    <vehicle id="89" depart="89.00">
        <route edges="-143240397#2 143240397#2"/>
    </vehicle>
    <vehicle id="91" depart="91.00">
        <route edges="26283729#2 26283729#3 138980164#0 107215084 45444005 107215079#0 359476590#0 542070647#1 107215088#0 -332907586"/>
    </vehicle>
    <vehicle id="92" depart="92.00">
        <route edges="-36913437#1 -36913437#0 52246044#1 52246044#2 52246044#3 45444005 107215079#0 359476590#0 359476590#1 359476590#2 323813903#0 323813903#1"/>
    </vehicle>
    <vehicle id="93" depart="93.00">
        <route edges="-332907586 332907586"/>
    </vehicle>
    <vehicle id="96" depart="96.00">
        <route edges="542070647#0 359476590#1 359476590#2 323813903#0 323813903#1"/>
    </vehicle>
    <vehicle id="99" depart="99.00">
        <route edges="143240397#2 -143240397#2 -143240397#1 -143240397#0 26283723#3 23515741#0 107215077#4 107215077#5 107215077#6"/>
    </vehicle>
    <vehicle id="104" depart="104.00">
        <route edges="-107215084 107215084 107215077#0 107215077#1 107215077#2 107215077#3 107215077#4 45444035 26283723#2 143240397#0 143240397#1 143240397#2"/>
    </vehicle>
    <vehicle id="105" depart="105.00">
        <route edges="-107215084 107215084 107215077#0 107215077#1 107215077#2 107215077#3 107215077#4 45444035 26283723#2 143240397#0"/>
    </vehicle>
    <vehicle id="106" depart="106.00">
        <route edges="323813903#1 464712045 107215079#1 107215079#2 107215079#3"/>
    </vehicle>
    <vehicle id="107" depart="107.00">
        <route edges="143240397#2 -143240397#2 -143240397#1 -143240397#0 26283723#3 23515741#0 107215077#4 107215077#5 370403491"/>
    </vehicle>
    <vehicle id="108" depart="108.00">
        <route edges="-143240397#0 26283723#3 23515741#0 107215077#4 45444035 -45444035"/>
    </vehicle>
    <vehicle id="113" depart="113.00">
        <route edges="107215079#0 26283729#0 26283729#1 107215077#3 107215077#4 107215077#5 370403491 -370403491"/>
    </vehicle>
    <vehicle id="115" depart="115.00">
        <route edges="362900185#1 107215079#0 26283729#0 26283729#1 107215077#3 107215077#4 45444035 26283723#2 26283723#3 23515741#0"/>
    </vehicle>
    <vehicle id="116" depart="116.00">
        <route edges="-36913440 138980164#2 -36913437#0 52246044#1 52246044#2 52246044#3 45444005 107215079#0 359476590#0 542070647#1 107215088#0 -332907586"/>
    </vehicle>
    <vehicle id="117" depart="117.00">
        <route edges="-631820140#1 -631820140#0 26283729#1 26283729#2 26283729#3 138980164#0 138980164#1"/>
    </vehicle>
    <vehicle id="121" depart="121.00">
        <route edges="107215077#1 107215077#2 26283729#2 26283729#3 138980164#0 107215084 45444005 107215079#0 359476590#0 542070647#1 107215088#0"/>
    </vehicle>
    <vehicle id="122" depart="122.00">
        <route edges="-36913437#0 36913437#0 138980164#3"/>
    </vehicle>
    <vehicle id="125" depart="125.00">
        <route edges="-36913437#0 52246044#1 52246044#2 52246044#3 45444005 107215079#0 359476590#0 359476590#1"/>
    </vehicle>
    <vehicle id="129" depart="129.00">
        <route edges="107215084 107215077#0 107215077#1 107215077#2 107215077#3 107215077#4 45444035"/>
    </vehicle>
    <vehicle id="130" depart="130.00">
        <route edges="107215077#4 45444035 26283723#2 26283723#3 26283723#4 138980164#0 138980164#1 138980164#2 -36913437#0 36913437#0"/>
    </vehicle>
    <vehicle id="132" depart="132.00">
        <route edges="542070647#0 542070647#1 464712045 26283729#0 26283729#1 107215077#3 107215077#4 107215077#5 107215077#6 142664922#0"/>
    </vehicle>
    <vehicle id="133" depart="133.00">
        <route edges="542070647#0 542070647#1 464712045 26283729#0 631820140#0 -631820140#2"/>
    </vehicle>
    <vehicle id="134" depart="134.00">
        <route edges="26283729#0 26283729#1 26283729#2 26283729#3 138980164#0"/>
    </vehicle>
    <vehicle id="135" depart="135.00">
        <route edges="36913437#1 -36913437#1 -36913437#0 52246044#1 52246044#2 52246044#3 107215077#0 107215077#1 107215077#2 26283729#2 26283729#3 26283729#4 26283729#5 26283729#6"/>
    </vehicle>
    <vehicle id="137" depart="137.00">
        <route edges="323813903#1 107215088#0 107215088#1"/>
    </vehicle>
    <vehicle id="139" depart="139.00">
        <route edges="143240397#0 -143240397#0 26283723#3 23515741#0 23515741#1"/>
    </vehicle>
    <vehicle id="152" depart="152.00">
        <route edges="45444035 26283723#2 26283723#3 26283723#4 138980164#0 138980164#1 36913440"/>
    </vehicle>
    <vehicle id="154" depart="154.00">
        <route edges="26283723#4 138980164#0 107215084 45444005 107215079#0 359476590#0 359476590#1"/>
    </vehicle>
    <vehicle id="156" depart="156.00">
        <route edges="367491275#0 367491275#1 138980161 23515741#0 107215077#4 45444035 26283723#2 143240397#0 143240397#1 143240397#2 -143240397#2"/>
    </vehicle>
    <vehicle id="157" depart="157.00">
        <route edges="542070647#0 542070647#1 464712045 26283729#0 26283729#1 26283729#2 26283729#3 138980164#0 107215084"/>
    </vehicle>
    <vehicle id="158" depart="158.00">
        <route edges="-143240397#2 -143240397#1 -143240397#0 143240397#0"/>
    </vehicle>
    <vehicle id="159" depart="159.00">
        <route edges="631820140#1 -631820140#1"/>
    </vehicle>
    <vehicle id="160" depart="160.00">
        <route edges="-36913440 138980164#2 -36913437#0 52246044#1 52246044#2 52246044#3 45444005"/>
    </vehicle>
    <vehicle id="162" depart="162.00">
        <route edges="143240397#2 -143240397#2 -143240397#1 -143240397#0 26283723#3 26283723#4 138980164#0 107215084 45444005 107215079#0 359476590#0 542070647#1 107215088#0 -332907586 332907586"/>
    </vehicle>
    <vehicle id="165" depart="165.00">
        <route edges="45444005 107215079#0 26283729#0 26283729#1 26283729#2 26283729#3 138980164#0 138980164#1 138980164#2 36913437#1 -36913437#1"/>
    </vehicle>
    <vehicle id="167" depart="167.00">
        <route edges="359476590#1 359476590#2 323813903#0 323813903#1 464712045 26283729#0 26283729#1 26283729#2 26283729#3 138980164#0 138980164#1 36913440 -36913440"/>
    </vehicle>
    <vehicle id="168" depart="168.00">
        <route edges="107215077#2 107215077#3 23515741#1"/>
    </vehicle>
    <vehicle id="171" depart="171.00">
        <route edges="-143240397#1 -143240397#0 26283723#3"/>
    </vehicle>
    <vehicle id="173" depart="173.00">
        <route edges="-36913437#0 52246044#1 52246044#2 52246044#3 107215077#0 107215077#1 107215077#2 107215077#3 107215077#4 45444035"/>
    </vehicle>
    <vehicle id="175" depart="175.00">
        <route edges="367491275#1 138980161 23515741#0 107215077#4"/>
    </vehicle>
    <vehicle id="176" depart="176.00">
        <route edges="36913440 -36913440 138980164#2 -36913437#0 52246044#1 52246044#2 52246044#3 107215077#0 107215077#1 107215077#2 107215077#3 107215077#4 107215077#5 107215077#6 142664922#0 26283723#0 26283723#1"/>
    </vehicle>
    <vehicle id="180" depart="180.00">
        <route edges="107215077#2 26283729#2 26283729#3 138980164#0 107215084 45444005 107215079#0 359476590#0 542070647#1 107215088#0"/>
    </vehicle>
    <vehicle id="182" depart="182.00">
        <route edges="107215077#4 107215077#5 107215077#6 142664922#0 142664922#1"/>
    </vehicle>
    <vehicle id="184" depart="184.00">
        <route edges="631820140#1 631820140#2 -631820140#0 26283729#1 26283729#2 26283729#3 138980164#0 107215084 45444005 107215079#0 107215079#1"/>
    </vehicle>
    <vehicle id="191" depart="191.00">
        <route edges="323813903#1 464712045 26283729#0 26283729#1 107215077#3"/>
    </vehicle>
    <vehicle id="192" depart="192.00">
        <route edges="143240397#0 -143240397#0 26283723#3 26283723#4 138980164#0 107215084 45444005"/>
    </vehicle>
    <vehicle id="193" depart="193.00">
        <route edges="-36913440 138980164#2 -36913437#0 52246044#1 52246044#2 52246044#3 107215077#0 107215077#1 107215077#2 107215077#3 107215077#4 45444035"/>
    </vehicle>
    <vehicle id="194" depart="194.00">
        <route edges="631820140#2 -631820140#0 26283729#1 26283729#2 26283729#3 138980164#0 107215084 45444005"/>
    </vehicle>
    <vehicle id="195" depart="195.00">
        <route edges="26283723#4 138980164#0 107215084 107215077#0 107215077#1 107215077#2 107215077#3 107215077#4 45444035"/>
    </vehicle>
    <vehicle id="202" depart="202.00">
        <route edges="26283723#2 26283723#3 23515741#0 23515741#1"/>
    </vehicle>
    <vehicle id="205" depart="205.00">
        <route edges="120511754#0 120511754#1 142664922#0 26283723#0 26283723#1 26283723#2 26283723#3 26283723#4 138980164#0 107215084 45444005 107215079#0 26283729#0 26283729#1"/>
    </vehicle>
    <vehicle id="207" depart="207.00">
        <route edges="45444005 107215079#0 26283729#0 26283729#1 26283729#2 26283729#3 138980164#0 107215084"/>
    </vehicle>
    <vehicle id="208" depart="208.00">
        <route edges="120511754#1 142664922#0"/>
    </vehicle>
    <vehicle id="211" depart="211.00">
        <route edges="367491275#1 138980161 26283723#4 138980164#0"/>
    </vehicle>
    <vehicle id="212" depart="212.00">
        <route edges="26283723#3 26283723#4 138980164#0 107215084 45444005 107215079#0 359476590#0 542070647#1 107215088#0 -332907586 332907586"/>
    </vehicle>
    <vehicle id="214" depart="214.00">
        <route edges="-36913440 138980164#2 -36913437#0 52246044#1 52246044#2 52246044#3 107215077#0 107215077#1 107215077#2 107215077#3 107215077#4 45444035 -45444035"/>
    </vehicle>
    <vehicle id="219" depart="219.00">
        <route edges="-631820140#1 -631820140#0 26283729#1 26283729#2 26283729#3 138980164#0 138980164#1 138980164#2 138980164#3"/>
    </vehicle>
    <vehicle id="221" depart="221.00">
        <route edges="107215077#2 107215077#3 107215077#4 107215077#5 370403491 -370403491"/>
    </vehicle>
    <vehicle id="222" depart="222.00">
        <route edges="-143240397#2 -143240397#1 -143240397#0 26283723#3 26283723#4 138980164#0 138980164#1 138980164#2 36913437#1 -36913437#1"/>
    </vehicle>
    <vehicle id="223" depart="223.00">
        <route edges="45444005 107215079#0 26283729#0 26283729#1 107215077#3 107215077#4 107215077#5 370403491"/>
    </vehicle>
    <vehicle id="227" depart="227.00">
        <route edges="-143240397#2 -143240397#1 -143240397#0 26283723#3 26283723#4 138980164#0 107215084 45444005 107215079#0 359476590#0 542070647#1 107215088#0 -332907586 332907586"/>
    </vehicle>
    <vehicle id="229" depart="229.00">
        <route edges="362900185#1 107215079#0 107215079#1 107215079#2 107215079#3"/>
    </vehicle>
    <vehicle id="233" depart="233.00">
        <route edges="-143240397#2 -143240397#1 -143240397#0 26283723#3 26283723#4 138980164#0 107215084 45444005 107215079#0 26283729#0"/>
    </vehicle>
    <vehicle id="236" depart="236.00">
        <route edges="26283729#0 26283729#1 26283729#2 26283729#3 138980164#0 107215084 45444005 107215079#0 359476590#0 542070647#1 107215088#0 -332907586"/>
    </vehicle>
    <vehicle id="237" depart="237.00">
        <route edges="-143240397#2 -143240397#1 -143240397#0 26283723#3 26283723#4 138980164#0 107215084 45444005 107215079#0 359476590#0 542070647#1 107215088#0 -332907586 332907586"/>
    </vehicle>
    <vehicle id="239" depart="239.00">
        <route edges="631820140#2 -631820140#0 26283729#1 107215077#3 107215077#4 45444035 26283723#2 143240397#0 143240401#0 143240401#1"/>
    </vehicle>
    <vehicle id="240" depart="240.00">
        <route edges="323813903#1 464712045 26283729#0 26283729#1 26283729#2 26283729#3"/>
    </vehicle>
    <vehicle id="241" depart="241.00">
        <route edges="26283729#1 26283729#2 26283729#3 138980164#0 107215084 45444005 107215079#0 359476590#0 542070647#1 107215088#0"/>
    </vehicle>
    <vehicle id="250" depart="250.00">
        <route edges="-36913437#1 -36913437#0 52246044#1 52246044#2 52246044#3 45444005 107215079#0 359476590#0 359476590#1 359476590#2 323813903#0 323813903#1"/>
    </vehicle>
    <vehicle id="252" depart="252.00">
        <route edges="359476590#1 359476590#2 323813903#0 323813903#1 464712045 26283729#0 26283729#1 107215077#3 107215077#4 107215077#5 107215077#6"/>
    </vehicle>
    <vehicle id="255" depart="255.00">
        <route edges="52246044#0 52246044#1 52246044#2 52246044#3 107215077#0 107215077#1 107215077#2 107215077#3 107215077#4 45444035 26283723#2 143240397#0 143240397#1 143240397#2 -143240397#2"/>
    </vehicle>
    <vehicle id="258" depart="258.00">
        <route edges="26283723#0 26283723#1 26283723#2 26283723#3 26283723#4 138980164#0 107215084 45444005 107215079#0 26283729#0 631820140#0 -631820140#2"/>
    </vehicle>
    <vehicle id="260" depart="260.00">
        <route edges="359476590#1 359476590#2 323813903#0 323813903#1 107215088#0 -332907586"/>
    </vehicle>
    <vehicle id="263" depart="263.00">
        <route edges="-143240397#1 -143240397#0 26283723#3 26283723#4 138980164#0 107215084 45444005"/>
    </vehicle>
    <vehicle id="266" depart="266.00">
        <route edges="359476590#1 359476590#2 323813903#0 323813903#1 464712045 26283729#0 26283729#1 107215077#3 107215077#4 45444035 26283723#2 143240397#0 143240397#1 143240397#2"/>
    </vehicle>
    <vehicle id="270" depart="270.00">
        <route edges="143240397#2 -143240397#2 -143240397#1 -143240397#0 26283723#3 23515741#0 107215077#4 107215077#5 370403491 -370403491"/>
    </vehicle>
    <vehicle id="271" depart="271.00">
        <route edges="370403491 -370403491 107215077#6 142664922#0 26283723#0 26283723#1 26283723#2 26283723#3 26283723#4 138980164#0 138980164#1 138980164#2 -36913437#0"/>
    </vehicle>
    <vehicle id="272" depart="272.00">
        <route edges="107215077#4 45444035 26283723#2 26283723#3 23515741#0 23515741#1"/>
    </vehicle>
    <vehicle id="279" depart="279.00">
        <route edges="359476590#1 359476590#2 323813903#0 323813903#1 464712045 26283729#0 26283729#1 107215077#3 107215077#4 45444035 -45444035"/>
    </vehicle>
    <vehicle id="280" depart="280.00">
        <route edges="26283723#0 26283723#1 26283723#2 143240397#0 143240397#1 143240397#2 -143240397#2"/>
    </vehicle>
    <vehicle id="282" depart="282.00">
        <route edges="370403491 -370403491 107215077#6 142664922#0 26283723#0 26283723#1 26283723#2 143240397#0 143240397#1 143240397#2 -143240397#2"/>
    </vehicle>
    <vehicle id="290" depart="290.00">
        <route edges="23515741#0 107215077#4 45444035 26283723#2 26283723#3 26283723#4 138980164#0 107215084 45444005 107215079#0 359476590#0 542070647#1 107215088#0 -332907586 332907586"/>
    </vehicle>
    <vehicle id="295" depart="295.00">
        <route edges="138980161 26283723#4 138980164#0 107215084 45444005 107215079#0 359476590#0 359476590#1 359476590#2 323813903#0 323813903#1"/>
    </vehicle>
    <vehicle id="298" depart="298.00">
        <route edges="-370403491 107215077#6 142664922#0 26283723#0 26283723#1 -45444035 45444035"/>
    </vehicle>
    <vehicle id="300" depart="300.00">
        <route edges="542070647#0 542070647#1 464712045 26283729#0 26283729#1 26283729#2 26283729#3 138980164#0 138980164#1 138980164#2 -36913437#0"/>
    </vehicle>
    <vehicle id="302" depart="302.00">
        <route edges="107215084 107215077#0 107215077#1 107215077#2 107215077#3 107215077#4 107215077#5 107215077#6 142664922#0 26283723#0"/>
    </vehicle>
    <vehicle id="306" depart="306.00">
        <route edges="631820140#2 -631820140#0 26283729#1 26283729#2 26283729#3 138980164#0 138980164#1 138980164#2 138980164#3"/>
    </vehicle>
    <vehicle id="307" depart="307.00">
        <route edges="52246044#0 52246044#1 52246044#2 52246044#3 45444005 107215079#0 359476590#0 542070647#1 107215088#0 -332907586"/>
    </vehicle>
    <vehicle id="308" depart="308.00">
        <route edges="26283723#4 138980164#0 107215084 107215077#0 107215077#1 107215077#2 107215077#3 107215077#4 107215077#5 107215077#6 142664922#0"/>
    </vehicle>
    <vehicle id="310" depart="310.00">
        <route edges="542070647#0 359476590#1"/>
    </vehicle>
    <vehicle id="314" depart="314.00">
        <route edges="36913437#0 -36913437#0 52246044#1 52246044#2 52246044#3 45444005 107215079#0 26283729#0 26283729#1"/>
    </vehicle>
    <vehicle id="315" depart="315.00">
        <route edges="107215077#4 45444035 26283723#2 26283723#3 26283723#4 138980164#0 107215084 45444005 107215079#0 359476590#0 542070647#1 107215088#0 -332907586"/>
    </vehicle>
    <vehicle id="318" depart="318.00">
        <route edges="26283729#1 26283729#2 26283729#3 138980164#0 138980164#1"/>
    </vehicle>
    <vehicle id="321" depart="321.00">
        <route edges="26283723#4 138980164#0 107215084 45444005 107215079#0 359476590#0 542070647#1 107215088#0 107215088#1"/>
    </vehicle>
    <vehicle id="322" depart="322.00">
        <route edges="-45444035 45444035 26283723#2 26283723#3 23515741#0 107215077#4"/>
    </vehicle>
    <vehicle id="325" depart="325.00">
        <route edges="120511754#1 142664922#0 26283723#0 26283723#1 26283723#2 26283723#3 26283723#4 138980164#0 107215084 45444005 107215079#0 359476590#0 359476590#1 359476590#2 323813903#0 323813903#1"/>
    </vehicle>
    <vehicle id="326" depart="326.00">
        <route edges="26283723#4 138980164#0 107215084 107215077#0 107215077#1 107215077#2 107215077#3 107215077#4 107215077#5 370403491 -370403491"/>
    </vehicle>
    <vehicle id="329" depart="329.00">
        <route edges="45444035 26283723#2 26283723#3 23515741#0 23515741#1 107215079#2 107215079#3"/>
    </vehicle>
    <vehicle id="330" depart="330.00">
        <route edges="-107215084 107215084 107215077#0 107215077#1 107215077#2 107215077#3"/>
    </vehicle>
    <vehicle id="333" depart="333.00">
        <route edges="142664922#0 26283723#0 26283723#1 26283723#2 26283723#3 23515741#0 107215077#4"/>
    </vehicle>
    <vehicle id="334" depart="334.00">
        <route edges="323813903#1 464712045 26283729#0 26283729#1 26283729#2 26283729#3 138980164#0 138980164#1 138980164#2 -36913437#0 36913437#0"/>
    </vehicle>
    <vehicle id="338" depart="338.00">
        <route edges="-370403491 107215077#6 142664922#0 26283723#0 26283723#1 26283723#2 26283723#3 26283723#4 138980164#0 107215084 45444005 107215079#0 359476590#0 359476590#1 359476590#2 323813903#0 323813903#1"/>
    </vehicle>
    <vehicle id="340" depart="340.00">
        <route edges="362900185#1 107215079#0 26283729#0 26283729#1 107215077#3 107215077#4"/>
    </vehicle>
    <vehicle id="344" depart="344.00">
        <route edges="362900185#1 107215079#0 359476590#0 542070647#1 107215088#0"/>
    </vehicle>
    <vehicle id="348" depart="348.00">
        <route edges="362900185#0 362900185#1 107215079#0 26283729#0 26283729#1 107215077#3 107215077#4"/>
    </vehicle>
    <vehicle id="351" depart="351.00">
        <route edges="107215077#4 45444035 26283723#2 26283723#3 26283723#4 138980164#0 107215084 45444005 107215079#0 26283729#0 631820140#0 631820140#1 631820140#2"/>
    </vehicle>
    <vehicle id="352" depart="352.00">
        <route edges="143240397#2 -143240397#2 -143240397#1 -143240397#0 26283723#3 26283723#4 138980164#0 107215084 45444005 107215079#0 359476590#0 542070647#1 107215088#0 -332907586"/>
    </vehicle>
    <vehicle id="353" depart="353.00">
        <route edges="143240397#2 -143240397#2 -143240397#1 -143240397#0 26283723#3 26283723#4 138980164#0 107215084 45444005 107215079#0 359476590#0 542070647#1 107215088#0 -332907586 332907586"/>
    </vehicle>
    <vehicle id="355" depart="355.00">
        <route edges="52246044#1 52246044#2 52246044#3 -107215084 138980164#1 138980164#2 36913437#1"/>
    </vehicle>
    <vehicle id="356" depart="356.00">
        <route edges="143240397#2 -143240397#2 -143240397#1 -143240397#0 26283723#3 26283723#4 138980164#0 107215084 45444005"/>
    </vehicle>
    <vehicle id="359" depart="359.00">
        <route edges="370403491 -370403491 107215077#6 142664922#0 26283723#0 26283723#1 26283723#2 26283723#3 26283723#4 138980164#0 107215084 45444005 107215079#0 359476590#0 542070647#1 107215088#0 -332907586 332907586"/>
    </vehicle>
    <vehicle id="362" depart="362.00">
        <route edges="107215079#0 26283729#0 26283729#1 26283729#2 26283729#3 138980164#0 138980164#1 138980164#2 -36913437#0 36913437#0"/>
    </vehicle>
    <vehicle id="363" depart="363.00">
        <route edges="26283723#3 26283723#4 138980164#0 138980164#1 36913440 -36913440"/>
    </vehicle>
    <vehicle id="367" depart="367.00">
        <route edges="138980164#2 -36913437#0 52246044#1 52246044#2 52246044#3 45444005 107215079#0 107215079#1"/>
    </vehicle>
    <vehicle id="368" depart="368.00">
        <route edges="36913440 -36913440 138980164#2 -36913437#0 52246044#1 52246044#2 52246044#3 107215077#0 107215077#1 107215077#2 107215077#3 107215077#4 107215077#5 107215077#6"/>
    </vehicle>
    <vehicle id="371" depart="371.00">
        <route edges="-631820140#2 631820140#2 -631820140#0 26283729#1 107215077#3 107215077#4 45444035 26283723#2 26283723#3 26283723#4"/>
    </vehicle>
    <vehicle id="374" depart="374.00">
        <route edges="36913440 -36913440 138980164#2 -36913437#0 52246044#1 52246044#2 52246044#3 45444005 107215079#0 359476590#0 359476590#1 359476590#2 323813903#0 323813903#1"/>
    </vehicle>
    <vehicle id="376" depart="376.00">
        <route edges="36913437#0 -36913437#0 52246044#1 52246044#2 52246044#3 -107215084 138980164#1"/>
    </vehicle>
    <vehicle id="378" depart="378.00">
        <route edges="52246044#3 107215077#0 107215077#1 107215077#2 107215077#3 107215077#4 107215077#5 107215077#6 142664922#0 142664922#1"/>